
     RDKit          3D

 12 12  0  0  0  0  0  0  0  0999 V2000
   -1.1992    0.6647   -0.0436 C   0  0  0  0  0  0  0  0  0  0  0  0
   -0.0117    1.3962   -0.0484 C   0  0  0  0  0  0  0  0  0  0  0  0
    1.1860    0.7271   -0.0046 C   0  0  0  0  0  0  0  0  0  0  0  0
    1.1942   -0.6703    0.0438 C   0  0  0  0  0  0  0  0  0  0  0  0
    0.0214   -1.3860    0.0482 C   0  0  0  0  0  0  0  0  0  0  0  0
   -1.1914   -0.7258    0.0045 C   0  0  0  0  0  0  0  0  0  0  0  0
   -2.1298    1.1810   -0.0775 H   0  0  0  0  0  0  0  0  0  0  0  0
    0.0041    2.4774   -0.0854 H   0  0  0  0  0  0  0  0  0  0  0  0
    2.1025    1.3011   -0.0086 H   0  0  0  0  0  0  0  0  0  0  0  0
    2.1297   -1.1818    0.0775 H   0  0  0  0  0  0  0  0  0  0  0  0
    0.0067   -2.4830    0.0858 H   0  0  0  0  0  0  0  0  0  0  0  0
   -2.1127   -1.3007    0.0084 H   0  0  0  0  0  0  0  0  0  0  0  0
  1  2  2  0
  2  3  1  0
  3  4  2  0
  4  5  1  0
  5  6  2  0
  6  1  1  0
  1  7  1  0
  2  8  1  0
  3  9  1  0
  4 10  1  0
  5 11  1  0
  6 12  1  0
M  END
