178


  6  5  0  0  0  0  0  0  0  0999 V2000
  -46.9704   70.4961   27.7764 O   0  0  0  0  0  0  0  0  0  0  0  0
  -45.4851   72.1006   27.0597 N   0  0  0  0  0  0  0  0  0  0  0  0
  -47.8507   72.5534   26.9235 C   0  0  0  0  0  0  0  0  0  0  0  0
  -46.7452   71.6034   27.2940 C   0  0  0  0  0  0  0  0  0  0  0  0
  -44.6598   71.5510   27.2751 H   0  0  0  0  0  0  0  0  0  0  0  0
  -45.3267   73.0246   26.6709 H   0  0  0  0  0  0  0  0  0  0  0  0
  1  4  2  0  0  0
  2  4  1  0  0  0
  2  5  1  0  0  0
  2  6  1  0  0  0
  3  4  1  0  0  0
M  END
> <minimizedAffinity>
-3.29343

$$$$
178


  6  5  0  0  0  0  0  0  0  0999 V2000
  -48.9562   73.5500   27.3090 O   0  0  0  0  0  0  0  0  0  0  0  0
  -46.9807   73.1243   26.2090 N   0  0  0  0  0  0  0  0  0  0  0  0
  -48.0289   71.3472   27.4592 C   0  0  0  0  0  0  0  0  0  0  0  0
  -48.0491   72.7800   27.0027 C   0  0  0  0  0  0  0  0  0  0  0  0
  -46.8893   74.0639   25.8371 H   0  0  0  0  0  0  0  0  0  0  0  0
  -46.2502   72.4647   25.9610 H   0  0  0  0  0  0  0  0  0  0  0  0
  1  4  2  0  0  0
  2  4  1  0  0  0
  2  5  1  0  0  0
  2  6  1  0  0  0
  3  4  1  0  0  0
M  END
> <minimizedAffinity>
-3.11115

$$$$
178


  6  5  0  0  0  0  0  0  0  0999 V2000
  -46.7246   73.8617   25.8597 O   0  0  0  0  0  0  0  0  0  0  0  0
  -45.1935   72.1478   25.9705 N   0  0  0  0  0  0  0  0  0  0  0  0
  -47.3118   71.8975   27.0974 C   0  0  0  0  0  0  0  0  0  0  0  0
  -46.3977   72.7460   26.2570 C   0  0  0  0  0  0  0  0  0  0  0  0
  -44.4968   72.6230   25.4063 H   0  0  0  0  0  0  0  0  0  0  0  0
  -44.9530   71.2190   26.3018 H   0  0  0  0  0  0  0  0  0  0  0  0
  1  4  2  0  0  0
  2  4  1  0  0  0
  2  5  1  0  0  0
  2  6  1  0  0  0
  3  4  1  0  0  0
M  END
> <minimizedAffinity>
-3.05909

$$$$
178


  6  5  0  0  0  0  0  0  0  0999 V2000
  -36.8289   63.0934   32.7433 O   0  0  0  0  0  0  0  0  0  0  0  0
  -35.8133   63.6554   30.7567 N   0  0  0  0  0  0  0  0  0  0  0  0
  -36.8371   61.4817   30.9721 C   0  0  0  0  0  0  0  0  0  0  0  0
  -36.4985   62.8081   31.5948 C   0  0  0  0  0  0  0  0  0  0  0  0
  -35.5348   64.5810   31.0654 H   0  0  0  0  0  0  0  0  0  0  0  0
  -35.5628   63.3989   29.8071 H   0  0  0  0  0  0  0  0  0  0  0  0
  1  4  2  0  0  0
  2  4  1  0  0  0
  2  5  1  0  0  0
  2  6  1  0  0  0
  3  4  1  0  0  0
M  END
> <minimizedAffinity>
-3.04737

$$$$
178


  6  5  0  0  0  0  0  0  0  0999 V2000
  -48.5007   70.2097   26.9512 O   0  0  0  0  0  0  0  0  0  0  0  0
  -48.7483   72.4598   27.3635 N   0  0  0  0  0  0  0  0  0  0  0  0
  -46.7296   71.3542   28.0860 C   0  0  0  0  0  0  0  0  0  0  0  0
  -48.0731   71.2634   27.4164 C   0  0  0  0  0  0  0  0  0  0  0  0
  -49.6637   72.5227   26.9303 H   0  0  0  0  0  0  0  0  0  0  0  0
  -48.3666   73.3191   27.7454 H   0  0  0  0  0  0  0  0  0  0  0  0
  1  4  2  0  0  0
  2  4  1  0  0  0
  2  5  1  0  0  0
  2  6  1  0  0  0
  3  4  1  0  0  0
M  END
> <minimizedAffinity>
-3.03062

$$$$
178


  6  5  0  0  0  0  0  0  0  0999 V2000
  -36.9349   61.4291   30.5140 O   0  0  0  0  0  0  0  0  0  0  0  0
  -35.8863   63.4496   30.8482 N   0  0  0  0  0  0  0  0  0  0  0  0
  -36.9489   62.3603   32.7201 C   0  0  0  0  0  0  0  0  0  0  0  0
  -36.6061   62.3516   31.2558 C   0  0  0  0  0  0  0  0  0  0  0  0
  -35.5935   63.5514   29.8821 H   0  0  0  0  0  0  0  0  0  0  0  0
  -35.6171   64.1927   31.4850 H   0  0  0  0  0  0  0  0  0  0  0  0
  1  4  2  0  0  0
  2  4  1  0  0  0
  2  5  1  0  0  0
  2  6  1  0  0  0
  3  4  1  0  0  0
M  END
> <minimizedAffinity>
-2.73327

$$$$
178


  6  5  0  0  0  0  0  0  0  0999 V2000
  -36.4954   67.2993   38.8582 O   0  0  0  0  0  0  0  0  0  0  0  0
  -34.3097   67.3529   38.1413 N   0  0  0  0  0  0  0  0  0  0  0  0
  -34.7609   67.1969   40.5060 C   0  0  0  0  0  0  0  0  0  0  0  0
  -35.2913   67.2932   39.1020 C   0  0  0  0  0  0  0  0  0  0  0  0
  -34.5473   67.4151   37.1568 H   0  0  0  0  0  0  0  0  0  0  0  0
  -33.3209   67.3341   38.3696 H   0  0  0  0  0  0  0  0  0  0  0  0
  1  4  2  0  0  0
  2  4  1  0  0  0
  2  5  1  0  0  0
  2  6  1  0  0  0
  3  4  1  0  0  0
M  END
> <minimizedAffinity>
-2.69404

$$$$
178


  6  5  0  0  0  0  0  0  0  0999 V2000
  -38.6539   61.9375   35.1752 O   0  0  0  0  0  0  0  0  0  0  0  0
  -39.9858   60.1357   35.6980 N   0  0  0  0  0  0  0  0  0  0  0  0
  -38.7861   60.1342   33.6051 C   0  0  0  0  0  0  0  0  0  0  0  0
  -39.1261   60.8400   34.8888 C   0  0  0  0  0  0  0  0  0  0  0  0
  -40.2831   60.5099   36.5931 H   0  0  0  0  0  0  0  0  0  0  0  0
  -40.3524   59.2244   35.4425 H   0  0  0  0  0  0  0  0  0  0  0  0
  1  4  2  0  0  0
  2  4  1  0  0  0
  2  5  1  0  0  0
  2  6  1  0  0  0
  3  4  1  0  0  0
M  END
> <minimizedAffinity>
-2.58459

$$$$
178


  6  5  0  0  0  0  0  0  0  0999 V2000
  -36.9378   63.2105   32.9448 O   0  0  0  0  0  0  0  0  0  0  0  0
  -36.9957   61.2258   34.1074 N   0  0  0  0  0  0  0  0  0  0  0  0
  -37.3220   61.1904   31.7174 C   0  0  0  0  0  0  0  0  0  0  0  0
  -37.0732   61.9895   32.9669 C   0  0  0  0  0  0  0  0  0  0  0  0
  -36.8259   61.6547   35.0112 H   0  0  0  0  0  0  0  0  0  0  0  0
  -37.0996   60.2162   34.0962 H   0  0  0  0  0  0  0  0  0  0  0  0
  1  4  2  0  0  0
  2  4  1  0  0  0
  2  5  1  0  0  0
  2  6  1  0  0  0
  3  4  1  0  0  0
M  END
> <minimizedAffinity>
-2.58414

$$$$
178


  6  5  0  0  0  0  0  0  0  0999 V2000
  -38.3062   62.3646   35.1132 O   0  0  0  0  0  0  0  0  0  0  0  0
  -36.8274   60.9272   34.0928 N   0  0  0  0  0  0  0  0  0  0  0  0
  -39.1952   60.5356   33.8487 C   0  0  0  0  0  0  0  0  0  0  0  0
  -38.0854   61.3710   34.4251 C   0  0  0  0  0  0  0  0  0  0  0  0
  -35.9997   61.4142   34.4205 H   0  0  0  0  0  0  0  0  0  0  0  0
  -36.6730   60.1092   33.5122 H   0  0  0  0  0  0  0  0  0  0  0  0
  1  4  2  0  0  0
  2  4  1  0  0  0
  2  5  1  0  0  0
  2  6  1  0  0  0
  3  4  1  0  0  0
M  END
> <minimizedAffinity>
-2.56636

$$$$
178


  6  5  0  0  0  0  0  0  0  0999 V2000
  -37.5787   62.4619   31.0773 O   0  0  0  0  0  0  0  0  0  0  0  0
  -35.7940   63.7878   31.6699 N   0  0  0  0  0  0  0  0  0  0  0  0
  -38.0306   64.5586   32.1423 C   0  0  0  0  0  0  0  0  0  0  0  0
  -37.1337   63.4959   31.5695 C   0  0  0  0  0  0  0  0  0  0  0  0
  -35.0927   63.1424   31.3217 H   0  0  0  0  0  0  0  0  0  0  0  0
  -35.4525   64.6451   32.0924 H   0  0  0  0  0  0  0  0  0  0  0  0
  1  4  2  0  0  0
  2  4  1  0  0  0
  2  5  1  0  0  0
  2  6  1  0  0  0
  3  4  1  0  0  0
M  END
> <minimizedAffinity>
-2.55504

$$$$
178


  6  5  0  0  0  0  0  0  0  0999 V2000
  -37.9667   66.0369   28.8239 O   0  0  0  0  0  0  0  0  0  0  0  0
  -37.4672   68.0566   29.8064 N   0  0  0  0  0  0  0  0  0  0  0  0
  -39.3765   66.8123   30.5975 C   0  0  0  0  0  0  0  0  0  0  0  0
  -38.2152   66.9142   29.6473 C   0  0  0  0  0  0  0  0  0  0  0  0
  -36.6550   68.2328   29.2243 H   0  0  0  0  0  0  0  0  0  0  0  0
  -37.6878   68.7607   30.5033 H   0  0  0  0  0  0  0  0  0  0  0  0
  1  4  2  0  0  0
  2  4  1  0  0  0
  2  5  1  0  0  0
  2  6  1  0  0  0
  3  4  1  0  0  0
M  END
> <minimizedAffinity>
-2.54777

$$$$
178


  6  5  0  0  0  0  0  0  0  0999 V2000
  -36.7143   62.5629   32.9546 O   0  0  0  0  0  0  0  0  0  0  0  0
  -37.0739   61.3371   31.0409 N   0  0  0  0  0  0  0  0  0  0  0  0
  -38.0225   60.5640   33.1198 C   0  0  0  0  0  0  0  0  0  0  0  0
  -37.2019   61.5888   32.3863 C   0  0  0  0  0  0  0  0  0  0  0  0
  -36.5458   61.9629   30.4417 H   0  0  0  0  0  0  0  0  0  0  0  0
  -37.4974   60.5303   30.5940 H   0  0  0  0  0  0  0  0  0  0  0  0
  1  4  2  0  0  0
  2  4  1  0  0  0
  2  5  1  0  0  0
  2  6  1  0  0  0
  3  4  1  0  0  0
M  END
> <minimizedAffinity>
-2.54531

$$$$
178


  6  5  0  0  0  0  0  0  0  0999 V2000
  -42.7928   59.8584   36.0494 O   0  0  0  0  0  0  0  0  0  0  0  0
  -44.6088   60.6385   34.8713 N   0  0  0  0  0  0  0  0  0  0  0  0
  -42.8084   59.5707   33.6721 C   0  0  0  0  0  0  0  0  0  0  0  0
  -43.3799   60.0325   34.9842 C   0  0  0  0  0  0  0  0  0  0  0  0
  -45.0952   60.9870   35.6907 H   0  0  0  0  0  0  0  0  0  0  0  0
  -45.0777   60.7592   33.9793 H   0  0  0  0  0  0  0  0  0  0  0  0
  1  4  2  0  0  0
  2  4  1  0  0  0
  2  5  1  0  0  0
  2  6  1  0  0  0
  3  4  1  0  0  0
M  END
> <minimizedAffinity>
-2.53826

$$$$
178


  6  5  0  0  0  0  0  0  0  0999 V2000
  -31.6351   72.2138   36.5754 O   0  0  0  0  0  0  0  0  0  0  0  0
  -33.5962   72.1205   37.7753 N   0  0  0  0  0  0  0  0  0  0  0  0
  -31.6709   73.1867   38.7633 C   0  0  0  0  0  0  0  0  0  0  0  0
  -32.2759   72.4585   37.5948 C   0  0  0  0  0  0  0  0  0  0  0  0
  -34.1121   71.6302   37.0521 H   0  0  0  0  0  0  0  0  0  0  0  0
  -34.1060   72.3454   38.6236 H   0  0  0  0  0  0  0  0  0  0  0  0
  1  4  2  0  0  0
  2  4  1  0  0  0
  2  5  1  0  0  0
  2  6  1  0  0  0
  3  4  1  0  0  0
M  END
> <minimizedAffinity>
-2.50461

$$$$
178


  6  5  0  0  0  0  0  0  0  0999 V2000
  -38.0217   64.0957   32.9082 O   0  0  0  0  0  0  0  0  0  0  0  0
  -37.5947   65.2388   30.9577 N   0  0  0  0  0  0  0  0  0  0  0  0
  -36.2711   63.2922   31.4854 C   0  0  0  0  0  0  0  0  0  0  0  0
  -37.3758   64.2364   31.8726 C   0  0  0  0  0  0  0  0  0  0  0  0
  -38.3186   65.9335   31.1091 H   0  0  0  0  0  0  0  0  0  0  0  0
  -37.0538   65.3254   30.1032 H   0  0  0  0  0  0  0  0  0  0  0  0
  1  4  2  0  0  0
  2  4  1  0  0  0
  2  5  1  0  0  0
  2  6  1  0  0  0
  3  4  1  0  0  0
M  END
> <minimizedAffinity>
-2.48732

$$$$
178


  6  5  0  0  0  0  0  0  0  0999 V2000
  -36.8683   70.2273   31.7508 O   0  0  0  0  0  0  0  0  0  0  0  0
  -34.8237   70.6152   30.7693 N   0  0  0  0  0  0  0  0  0  0  0  0
  -36.6370   69.7928   29.4072 C   0  0  0  0  0  0  0  0  0  0  0  0
  -36.1408   70.2214   30.7606 C   0  0  0  0  0  0  0  0  0  0  0  0
  -34.3796   70.9301   31.6255 H   0  0  0  0  0  0  0  0  0  0  0  0
  -34.2477   70.6119   29.9336 H   0  0  0  0  0  0  0  0  0  0  0  0
  1  4  2  0  0  0
  2  4  1  0  0  0
  2  5  1  0  0  0
  2  6  1  0  0  0
  3  4  1  0  0  0
M  END
> <minimizedAffinity>
-2.48386

$$$$
178


  6  5  0  0  0  0  0  0  0  0999 V2000
  -36.9136   61.9981   33.8074 O   0  0  0  0  0  0  0  0  0  0  0  0
  -38.7819   61.9372   35.1490 N   0  0  0  0  0  0  0  0  0  0  0  0
  -38.4831   60.2190   33.4822 C   0  0  0  0  0  0  0  0  0  0  0  0
  -37.9709   61.4695   34.1421 C   0  0  0  0  0  0  0  0  0  0  0  0
  -38.5364   62.7724   35.6702 H   0  0  0  0  0  0  0  0  0  0  0  0
  -39.6454   61.4741   35.4137 H   0  0  0  0  0  0  0  0  0  0  0  0
  1  4  2  0  0  0
  2  4  1  0  0  0
  2  5  1  0  0  0
  2  6  1  0  0  0
  3  4  1  0  0  0
M  END
> <minimizedAffinity>
-2.48108

$$$$
178


  6  5  0  0  0  0  0  0  0  0999 V2000
  -33.9185   70.7537   30.2607 O   0  0  0  0  0  0  0  0  0  0  0  0
  -31.6355   70.4957   30.3854 N   0  0  0  0  0  0  0  0  0  0  0  0
  -32.5922   72.6665   30.8238 C   0  0  0  0  0  0  0  0  0  0  0  0
  -32.8000   71.2228   30.4571 C   0  0  0  0  0  0  0  0  0  0  0  0
  -31.6512   69.5087   30.1508 H   0  0  0  0  0  0  0  0  0  0  0  0
  -30.7244   70.9056   30.5641 H   0  0  0  0  0  0  0  0  0  0  0  0
  1  4  2  0  0  0
  2  4  1  0  0  0
  2  5  1  0  0  0
  2  6  1  0  0  0
  3  4  1  0  0  0
M  END
> <minimizedAffinity>
-2.44709

$$$$
178


  6  5  0  0  0  0  0  0  0  0999 V2000
  -36.7829   64.1837   32.3873 O   0  0  0  0  0  0  0  0  0  0  0  0
  -38.3518   65.8582   32.2173 N   0  0  0  0  0  0  0  0  0  0  0  0
  -39.0194   63.5819   31.7784 C   0  0  0  0  0  0  0  0  0  0  0  0
  -37.9314   64.5509   32.1512 C   0  0  0  0  0  0  0  0  0  0  0  0
  -37.7065   66.6012   32.4643 H   0  0  0  0  0  0  0  0  0  0  0  0
  -39.3104   66.1333   32.0288 H   0  0  0  0  0  0  0  0  0  0  0  0
  1  4  2  0  0  0
  2  4  1  0  0  0
  2  5  1  0  0  0
  2  6  1  0  0  0
  3  4  1  0  0  0
M  END
> <minimizedAffinity>
-2.39672

$$$$
178


  6  5  0  0  0  0  0  0  0  0999 V2000
  -32.7049   72.7649   31.3310 O   0  0  0  0  0  0  0  0  0  0  0  0
  -33.9135   70.9236   30.6656 N   0  0  0  0  0  0  0  0  0  0  0  0
  -31.6592   71.1985   29.8519 C   0  0  0  0  0  0  0  0  0  0  0  0
  -32.7955   71.7233   30.6857 C   0  0  0  0  0  0  0  0  0  0  0  0
  -34.7424   71.1734   31.1948 H   0  0  0  0  0  0  0  0  0  0  0  0
  -33.9579   70.0609   30.1327 H   0  0  0  0  0  0  0  0  0  0  0  0
  1  4  2  0  0  0
  2  4  1  0  0  0
  2  5  1  0  0  0
  2  6  1  0  0  0
  3  4  1  0  0  0
M  END
> <minimizedAffinity>
-2.37686

$$$$
178


  6  5  0  0  0  0  0  0  0  0999 V2000
  -32.9009   72.6451   31.3480 O   0  0  0  0  0  0  0  0  0  0  0  0
  -31.9429   70.7320   30.5015 N   0  0  0  0  0  0  0  0  0  0  0  0
  -34.2243   71.2543   29.9165 C   0  0  0  0  0  0  0  0  0  0  0  0
  -32.9752   71.6247   30.6678 C   0  0  0  0  0  0  0  0  0  0  0  0
  -31.0480   70.8797   30.9564 H   0  0  0  0  0  0  0  0  0  0  0  0
  -32.0271   69.9019   29.9236 H   0  0  0  0  0  0  0  0  0  0  0  0
  1  4  2  0  0  0
  2  4  1  0  0  0
  2  5  1  0  0  0
  2  6  1  0  0  0
  3  4  1  0  0  0
M  END
> <minimizedAffinity>
-2.36443

$$$$
178


  6  5  0  0  0  0  0  0  0  0999 V2000
  -37.9178   64.4642   30.9356 O   0  0  0  0  0  0  0  0  0  0  0  0
  -38.4809   66.3275   32.1624 N   0  0  0  0  0  0  0  0  0  0  0  0
  -38.3244   66.5117   29.7621 C   0  0  0  0  0  0  0  0  0  0  0  0
  -38.2105   65.6561   30.9936 C   0  0  0  0  0  0  0  0  0  0  0  0
  -38.4404   65.8520   33.0578 H   0  0  0  0  0  0  0  0  0  0  0  0
  -38.7323   67.3107   32.1813 H   0  0  0  0  0  0  0  0  0  0  0  0
  1  4  2  0  0  0
  2  4  1  0  0  0
  2  5  1  0  0  0
  2  6  1  0  0  0
  3  4  1  0  0  0
M  END
> <minimizedAffinity>
-2.36429

$$$$
178


  6  5  0  0  0  0  0  0  0  0999 V2000
  -38.1423   63.9205   32.9718 O   0  0  0  0  0  0  0  0  0  0  0  0
  -36.3762   63.9250   31.4971 N   0  0  0  0  0  0  0  0  0  0  0  0
  -38.2011   65.4618   31.1399 C   0  0  0  0  0  0  0  0  0  0  0  0
  -37.5928   64.3616   31.9654 C   0  0  0  0  0  0  0  0  0  0  0  0
  -35.8677   63.1885   31.9752 H   0  0  0  0  0  0  0  0  0  0  0  0
  -35.9383   64.3152   30.6687 H   0  0  0  0  0  0  0  0  0  0  0  0
  1  4  2  0  0  0
  2  4  1  0  0  0
  2  5  1  0  0  0
  2  6  1  0  0  0
  3  4  1  0  0  0
M  END
> <minimizedAffinity>
-2.35021

$$$$
178


  6  5  0  0  0  0  0  0  0  0999 V2000
  -35.3735   70.3393   30.0327 O   0  0  0  0  0  0  0  0  0  0  0  0
  -35.9986   70.6346   27.8382 N   0  0  0  0  0  0  0  0  0  0  0  0
  -37.2915   69.1498   29.2322 C   0  0  0  0  0  0  0  0  0  0  0  0
  -36.1238   70.0872   29.0930 C   0  0  0  0  0  0  0  0  0  0  0  0
  -35.2500   71.2860   27.6262 H   0  0  0  0  0  0  0  0  0  0  0  0
  -36.6401   70.4183   27.0820 H   0  0  0  0  0  0  0  0  0  0  0  0
  1  4  2  0  0  0
  2  4  1  0  0  0
  2  5  1  0  0  0
  2  6  1  0  0  0
  3  4  1  0  0  0
M  END
> <minimizedAffinity>
-2.34282

$$$$
178


  6  5  0  0  0  0  0  0  0  0999 V2000
  -38.1640   70.7398   26.9447 O   0  0  0  0  0  0  0  0  0  0  0  0
  -36.2461   70.2586   28.1211 N   0  0  0  0  0  0  0  0  0  0  0  0
  -36.6187   72.5197   27.3674 C   0  0  0  0  0  0  0  0  0  0  0  0
  -37.0977   71.0960   27.4404 C   0  0  0  0  0  0  0  0  0  0  0  0
  -36.4664   69.2752   28.2393 H   0  0  0  0  0  0  0  0  0  0  0  0
  -35.3758   70.5815   28.5317 H   0  0  0  0  0  0  0  0  0  0  0  0
  1  4  2  0  0  0
  2  4  1  0  0  0
  2  5  1  0  0  0
  2  6  1  0  0  0
  3  4  1  0  0  0
M  END
> <minimizedAffinity>
-2.33743

$$$$
178


  6  5  0  0  0  0  0  0  0  0999 V2000
  -39.6505   60.6035   33.5553 O   0  0  0  0  0  0  0  0  0  0  0  0
  -40.2400   60.1011   35.7219 N   0  0  0  0  0  0  0  0  0  0  0  0
  -41.9390   60.0643   34.0097 C   0  0  0  0  0  0  0  0  0  0  0  0
  -40.5008   60.2922   34.3857 C   0  0  0  0  0  0  0  0  0  0  0  0
  -39.3031   60.2216   36.0923 H   0  0  0  0  0  0  0  0  0  0  0  0
  -40.9595   59.8321   36.3853 H   0  0  0  0  0  0  0  0  0  0  0  0
  1  4  2  0  0  0
  2  4  1  0  0  0
  2  5  1  0  0  0
  2  6  1  0  0  0
  3  4  1  0  0  0
M  END
> <minimizedAffinity>
-2.32585

$$$$
178


  6  5  0  0  0  0  0  0  0  0999 V2000
  -37.1129   62.0170   34.2286 O   0  0  0  0  0  0  0  0  0  0  0  0
  -38.4408   62.5017   32.4132 N   0  0  0  0  0  0  0  0  0  0  0  0
  -38.5052   60.2789   33.3483 C   0  0  0  0  0  0  0  0  0  0  0  0
  -37.9374   61.6710   33.3861 C   0  0  0  0  0  0  0  0  0  0  0  0
  -38.1353   63.4668   32.3429 H   0  0  0  0  0  0  0  0  0  0  0  0
  -39.1310   62.1934   31.7359 H   0  0  0  0  0  0  0  0  0  0  0  0
  1  4  2  0  0  0
  2  4  1  0  0  0
  2  5  1  0  0  0
  2  6  1  0  0  0
  3  4  1  0  0  0
M  END
> <minimizedAffinity>
-2.31859

$$$$
178


  6  5  0  0  0  0  0  0  0  0999 V2000
  -33.1246   70.8589   30.1738 O   0  0  0  0  0  0  0  0  0  0  0  0
  -35.2706   70.4500   30.8960 N   0  0  0  0  0  0  0  0  0  0  0  0
  -34.5759   72.7306   30.5273 C   0  0  0  0  0  0  0  0  0  0  0  0
  -34.2325   71.2665   30.5143 C   0  0  0  0  0  0  0  0  0  0  0  0
  -35.1584   69.4419   30.9214 H   0  0  0  0  0  0  0  0  0  0  0  0
  -36.1807   70.8124   31.1615 H   0  0  0  0  0  0  0  0  0  0  0  0
  1  4  2  0  0  0
  2  4  1  0  0  0
  2  5  1  0  0  0
  2  6  1  0  0  0
  3  4  1  0  0  0
M  END
> <minimizedAffinity>
-2.30316

$$$$
178


  6  5  0  0  0  0  0  0  0  0999 V2000
  -41.4531   70.2800   28.1525 O   0  0  0  0  0  0  0  0  0  0  0  0
  -39.3375   69.6289   28.7802 N   0  0  0  0  0  0  0  0  0  0  0  0
  -40.1400   71.8016   29.4544 C   0  0  0  0  0  0  0  0  0  0  0  0
  -40.3906   70.5108   28.7246 C   0  0  0  0  0  0  0  0  0  0  0  0
  -39.3927   68.7222   28.3279 H   0  0  0  0  0  0  0  0  0  0  0  0
  -38.4741   69.8400   29.2703 H   0  0  0  0  0  0  0  0  0  0  0  0
  1  4  2  0  0  0
  2  4  1  0  0  0
  2  5  1  0  0  0
  2  6  1  0  0  0
  3  4  1  0  0  0
M  END
> <minimizedAffinity>
-2.27130

$$$$
178


  6  5  0  0  0  0  0  0  0  0999 V2000
  -40.9117   72.1499   29.5231 O   0  0  0  0  0  0  0  0  0  0  0  0
  -38.7540   72.1045   28.7255 N   0  0  0  0  0  0  0  0  0  0  0  0
  -39.9155   70.0191   29.0737 C   0  0  0  0  0  0  0  0  0  0  0  0
  -39.9271   71.5214   29.1423 C   0  0  0  0  0  0  0  0  0  0  0  0
  -38.6458   73.1134   28.7228 H   0  0  0  0  0  0  0  0  0  0  0  0
  -37.9589   71.5617   28.4041 H   0  0  0  0  0  0  0  0  0  0  0  0
  1  4  2  0  0  0
  2  4  1  0  0  0
  2  5  1  0  0  0
  2  6  1  0  0  0
  3  4  1  0  0  0
M  END
> <minimizedAffinity>
-2.26478

$$$$
178


  6  5  0  0  0  0  0  0  0  0999 V2000
  -38.0844   65.7697   29.8526 O   0  0  0  0  0  0  0  0  0  0  0  0
  -38.1321   65.5481   32.1422 N   0  0  0  0  0  0  0  0  0  0  0  0
  -40.2170   65.6127   30.9304 C   0  0  0  0  0  0  0  0  0  0  0  0
  -38.7141   65.6592   30.9017 C   0  0  0  0  0  0  0  0  0  0  0  0
  -37.1230   65.5617   32.2474 H   0  0  0  0  0  0  0  0  0  0  0  0
  -38.6760   65.4457   32.9930 H   0  0  0  0  0  0  0  0  0  0  0  0
  1  4  2  0  0  0
  2  4  1  0  0  0
  2  5  1  0  0  0
  2  6  1  0  0  0
  3  4  1  0  0  0
M  END
> <minimizedAffinity>
-2.25932

$$$$
178


  6  5  0  0  0  0  0  0  0  0999 V2000
  -39.3294   67.8170   30.3402 O   0  0  0  0  0  0  0  0  0  0  0  0
  -37.7673   66.4115   29.4031 N   0  0  0  0  0  0  0  0  0  0  0  0
  -37.5994   68.7833   28.9956 C   0  0  0  0  0  0  0  0  0  0  0  0
  -38.3311   67.6416   29.6458 C   0  0  0  0  0  0  0  0  0  0  0  0
  -38.1713   65.5668   29.7941 H   0  0  0  0  0  0  0  0  0  0  0  0
  -36.9344   66.2956   28.8348 H   0  0  0  0  0  0  0  0  0  0  0  0
  1  4  2  0  0  0
  2  4  1  0  0  0
  2  5  1  0  0  0
  2  6  1  0  0  0
  3  4  1  0  0  0
M  END
> <minimizedAffinity>
-2.25451

$$$$
178


  6  5  0  0  0  0  0  0  0  0999 V2000
  -41.7809   60.0824   35.7973 O   0  0  0  0  0  0  0  0  0  0  0  0
  -40.6131   60.4370   33.8468 N   0  0  0  0  0  0  0  0  0  0  0  0
  -42.8687   59.5908   33.7214 C   0  0  0  0  0  0  0  0  0  0  0  0
  -41.7155   60.0494   34.5709 C   0  0  0  0  0  0  0  0  0  0  0  0
  -39.7751   60.7703   34.3118 H   0  0  0  0  0  0  0  0  0  0  0  0
  -40.5897   60.4110   32.8324 H   0  0  0  0  0  0  0  0  0  0  0  0
  1  4  2  0  0  0
  2  4  1  0  0  0
  2  5  1  0  0  0
  2  6  1  0  0  0
  3  4  1  0  0  0
M  END
> <minimizedAffinity>
-2.24383

$$$$
178


  6  5  0  0  0  0  0  0  0  0999 V2000
  -35.9995   63.9381   32.2337 O   0  0  0  0  0  0  0  0  0  0  0  0
  -37.8632   62.6699   31.7731 N   0  0  0  0  0  0  0  0  0  0  0  0
  -38.0741   65.0718   31.8522 C   0  0  0  0  0  0  0  0  0  0  0  0
  -37.1991   63.8555   31.9814 C   0  0  0  0  0  0  0  0  0  0  0  0
  -37.3749   61.7823   31.8294 H   0  0  0  0  0  0  0  0  0  0  0  0
  -38.8535   62.6304   31.5540 H   0  0  0  0  0  0  0  0  0  0  0  0
  1  4  2  0  0  0
  2  4  1  0  0  0
  2  5  1  0  0  0
  2  6  1  0  0  0
  3  4  1  0  0  0
M  END
> <minimizedAffinity>
-2.18642

$$$$
178


  6  5  0  0  0  0  0  0  0  0999 V2000
  -33.2037   70.6967   29.0636 O   0  0  0  0  0  0  0  0  0  0  0  0
  -35.1091   70.8284   27.7806 N   0  0  0  0  0  0  0  0  0  0  0  0
  -32.9585   70.8919   26.6895 C   0  0  0  0  0  0  0  0  0  0  0  0
  -33.7473   70.8015   27.9668 C   0  0  0  0  0  0  0  0  0  0  0  0
  -35.7441   70.7691   28.5698 H   0  0  0  0  0  0  0  0  0  0  0  0
  -35.5329   70.9038   26.8614 H   0  0  0  0  0  0  0  0  0  0  0  0
  1  4  2  0  0  0
  2  4  1  0  0  0
  2  5  1  0  0  0
  2  6  1  0  0  0
  3  4  1  0  0  0
M  END
> <minimizedAffinity>
-2.18521

$$$$
178


  6  5  0  0  0  0  0  0  0  0999 V2000
  -39.7498   61.8178   33.4128 O   0  0  0  0  0  0  0  0  0  0  0  0
  -37.8931   61.6846   34.7651 N   0  0  0  0  0  0  0  0  0  0  0  0
  -39.8058   60.3026   35.2664 C   0  0  0  0  0  0  0  0  0  0  0  0
  -39.1696   61.3429   34.3862 C   0  0  0  0  0  0  0  0  0  0  0  0
  -37.3614   62.3735   34.2432 H   0  0  0  0  0  0  0  0  0  0  0  0
  -37.4320   61.2678   35.5675 H   0  0  0  0  0  0  0  0  0  0  0  0
  1  4  2  0  0  0
  2  4  1  0  0  0
  2  5  1  0  0  0
  2  6  1  0  0  0
  3  4  1  0  0  0
M  END
> <minimizedAffinity>
-2.17393

$$$$
178


  6  5  0  0  0  0  0  0  0  0999 V2000
  -39.1521   61.7740   35.2707 O   0  0  0  0  0  0  0  0  0  0  0  0
  -40.0022   59.6361   35.2499 N   0  0  0  0  0  0  0  0  0  0  0  0
  -41.1670   61.3451   36.4916 C   0  0  0  0  0  0  0  0  0  0  0  0
  -40.0031   60.9599   35.6206 C   0  0  0  0  0  0  0  0  0  0  0  0
  -39.2683   59.2613   34.6579 H   0  0  0  0  0  0  0  0  0  0  0  0
  -40.7248   58.9866   35.5436 H   0  0  0  0  0  0  0  0  0  0  0  0
  1  4  2  0  0  0
  2  4  1  0  0  0
  2  5  1  0  0  0
  2  6  1  0  0  0
  3  4  1  0  0  0
M  END
> <minimizedAffinity>
-2.14026

$$$$
178


  6  5  0  0  0  0  0  0  0  0999 V2000
  -36.7037   69.2896   29.1859 O   0  0  0  0  0  0  0  0  0  0  0  0
  -35.1624   70.5212   30.3699 N   0  0  0  0  0  0  0  0  0  0  0  0
  -35.7126   71.1903   28.1184 C   0  0  0  0  0  0  0  0  0  0  0  0
  -35.9169   70.2305   29.2580 C   0  0  0  0  0  0  0  0  0  0  0  0
  -35.2198   69.9456   31.2035 H   0  0  0  0  0  0  0  0  0  0  0  0
  -34.5281   71.3126   30.4072 H   0  0  0  0  0  0  0  0  0  0  0  0
  1  4  2  0  0  0
  2  4  1  0  0  0
  2  5  1  0  0  0
  2  6  1  0  0  0
  3  4  1  0  0  0
M  END
> <minimizedAffinity>
-2.13680

$$$$
178


  6  5  0  0  0  0  0  0  0  0999 V2000
  -36.3463   71.4177   27.4484 O   0  0  0  0  0  0  0  0  0  0  0  0
  -38.5733   70.9660   27.0877 N   0  0  0  0  0  0  0  0  0  0  0  0
  -37.3234   69.5552   28.5933 C   0  0  0  0  0  0  0  0  0  0  0  0
  -37.3441   70.7320   27.6571 C   0  0  0  0  0  0  0  0  0  0  0  0
  -38.7103   71.7367   26.4421 H   0  0  0  0  0  0  0  0  0  0  0  0
  -39.3854   70.3905   27.2867 H   0  0  0  0  0  0  0  0  0  0  0  0
  1  4  2  0  0  0
  2  4  1  0  0  0
  2  5  1  0  0  0
  2  6  1  0  0  0
  3  4  1  0  0  0
M  END
> <minimizedAffinity>
-2.13611

$$$$
178


  6  5  0  0  0  0  0  0  0  0999 V2000
  -38.9587   70.4842   28.2147 O   0  0  0  0  0  0  0  0  0  0  0  0
  -36.7779   70.3896   27.4874 N   0  0  0  0  0  0  0  0  0  0  0  0
  -37.5455   68.7631   29.0951 C   0  0  0  0  0  0  0  0  0  0  0  0
  -37.8470   69.9618   28.2384 C   0  0  0  0  0  0  0  0  0  0  0  0
  -36.8632   71.1879   26.8669 H   0  0  0  0  0  0  0  0  0  0  0  0
  -35.8723   69.9321   27.5169 H   0  0  0  0  0  0  0  0  0  0  0  0
  1  4  2  0  0  0
  2  4  1  0  0  0
  2  5  1  0  0  0
  2  6  1  0  0  0
  3  4  1  0  0  0
M  END
> <minimizedAffinity>
-2.10426

$$$$
178


  6  5  0  0  0  0  0  0  0  0999 V2000
  -35.0525   70.4184   30.6790 O   0  0  0  0  0  0  0  0  0  0  0  0
  -37.2474   70.2328   31.3439 N   0  0  0  0  0  0  0  0  0  0  0  0
  -36.6735   69.7352   29.0542 C   0  0  0  0  0  0  0  0  0  0  0  0
  -36.2279   70.1677   30.4239 C   0  0  0  0  0  0  0  0  0  0  0  0
  -37.0664   70.5085   32.3035 H   0  0  0  0  0  0  0  0  0  0  0  0
  -38.2091   70.0087   31.1095 H   0  0  0  0  0  0  0  0  0  0  0  0
  1  4  2  0  0  0
  2  4  1  0  0  0
  2  5  1  0  0  0
  2  6  1  0  0  0
  3  4  1  0  0  0
M  END
> <minimizedAffinity>
-2.10041

$$$$
178


  6  5  0  0  0  0  0  0  0  0999 V2000
  -32.3428   71.7150   28.6360 O   0  0  0  0  0  0  0  0  0  0  0  0
  -32.1460   70.6261   30.6533 N   0  0  0  0  0  0  0  0  0  0  0  0
  -30.9622   69.7610   28.7376 C   0  0  0  0  0  0  0  0  0  0  0  0
  -31.8866   70.7977   29.3142 C   0  0  0  0  0  0  0  0  0  0  0  0
  -32.7530   71.2676   31.1528 H   0  0  0  0  0  0  0  0  0  0  0  0
  -31.7461   69.8656   31.1935 H   0  0  0  0  0  0  0  0  0  0  0  0
  1  4  2  0  0  0
  2  4  1  0  0  0
  2  5  1  0  0  0
  2  6  1  0  0  0
  3  4  1  0  0  0
M  END
> <minimizedAffinity>
-2.09596

$$$$
178


  6  5  0  0  0  0  0  0  0  0999 V2000
  -36.3453   70.0524   30.2412 O   0  0  0  0  0  0  0  0  0  0  0  0
  -37.1553   69.4185   28.1830 N   0  0  0  0  0  0  0  0  0  0  0  0
  -35.2448   70.8879   28.2854 C   0  0  0  0  0  0  0  0  0  0  0  0
  -36.2933   70.0935   29.0144 C   0  0  0  0  0  0  0  0  0  0  0  0
  -37.9018   68.8448   28.5613 H   0  0  0  0  0  0  0  0  0  0  0  0
  -37.0827   69.4602   27.1715 H   0  0  0  0  0  0  0  0  0  0  0  0
  1  4  2  0  0  0
  2  4  1  0  0  0
  2  5  1  0  0  0
  2  6  1  0  0  0
  3  4  1  0  0  0
M  END
> <minimizedAffinity>
-2.08916

$$$$
178


  6  5  0  0  0  0  0  0  0  0999 V2000
  -36.3154   70.3148   31.5712 O   0  0  0  0  0  0  0  0  0  0  0  0
  -36.1064   70.0806   29.2918 N   0  0  0  0  0  0  0  0  0  0  0  0
  -34.4234   71.3175   30.4990 C   0  0  0  0  0  0  0  0  0  0  0  0
  -35.7063   70.5333   30.5267 C   0  0  0  0  0  0  0  0  0  0  0  0
  -36.9556   69.5353   29.1868 H   0  0  0  0  0  0  0  0  0  0  0  0
  -35.5778   70.2655   28.4453 H   0  0  0  0  0  0  0  0  0  0  0  0
  1  4  2  0  0  0
  2  4  1  0  0  0
  2  5  1  0  0  0
  2  6  1  0  0  0
  3  4  1  0  0  0
M  END
> <minimizedAffinity>
-2.08272

$$$$
178


  6  5  0  0  0  0  0  0  0  0999 V2000
  -38.7727   63.7574   31.2779 O   0  0  0  0  0  0  0  0  0  0  0  0
  -40.4445   63.1410   32.7337 N   0  0  0  0  0  0  0  0  0  0  0  0
  -40.9580   64.6793   30.9478 C   0  0  0  0  0  0  0  0  0  0  0  0
  -39.9396   63.8289   31.6558 C   0  0  0  0  0  0  0  0  0  0  0  0
  -39.8516   62.5307   33.2865 H   0  0  0  0  0  0  0  0  0  0  0  0
  -41.4165   63.2089   33.0177 H   0  0  0  0  0  0  0  0  0  0  0  0
  1  4  2  0  0  0
  2  4  1  0  0  0
  2  5  1  0  0  0
  2  6  1  0  0  0
  3  4  1  0  0  0
M  END
> <minimizedAffinity>
-2.07762

$$$$
178


  6  5  0  0  0  0  0  0  0  0999 V2000
  -34.0208   67.8002   41.0718 O   0  0  0  0  0  0  0  0  0  0  0  0
  -34.2770   69.2571   39.3094 N   0  0  0  0  0  0  0  0  0  0  0  0
  -35.3615   67.1044   39.2135 C   0  0  0  0  0  0  0  0  0  0  0  0
  -34.4845   68.0671   39.9658 C   0  0  0  0  0  0  0  0  0  0  0  0
  -33.7052   69.9868   39.7219 H   0  0  0  0  0  0  0  0  0  0  0  0
  -34.6821   69.4569   38.4005 H   0  0  0  0  0  0  0  0  0  0  0  0
  1  4  2  0  0  0
  2  4  1  0  0  0
  2  5  1  0  0  0
  2  6  1  0  0  0
  3  4  1  0  0  0
M  END
> <minimizedAffinity>
-2.07450

$$$$
178


  6  5  0  0  0  0  0  0  0  0999 V2000
  -38.7957   67.6638   31.9564 O   0  0  0  0  0  0  0  0  0  0  0  0
  -38.0814   65.4821   32.1105 N   0  0  0  0  0  0  0  0  0  0  0  0
  -38.4565   66.4378   29.9275 C   0  0  0  0  0  0  0  0  0  0  0  0
  -38.4736   66.6055   31.4219 C   0  0  0  0  0  0  0  0  0  0  0  0
  -38.0486   65.4775   33.1246 H   0  0  0  0  0  0  0  0  0  0  0  0
  -37.8086   64.6233   31.6434 H   0  0  0  0  0  0  0  0  0  0  0  0
  1  4  2  0  0  0
  2  4  1  0  0  0
  2  5  1  0  0  0
  2  6  1  0  0  0
  3  4  1  0  0  0
M  END
> <minimizedAffinity>
-2.04004

$$$$
178


  6  5  0  0  0  0  0  0  0  0999 V2000
  -32.1891   71.0835   28.3365 O   0  0  0  0  0  0  0  0  0  0  0  0
  -32.6842   70.8079   30.5665 N   0  0  0  0  0  0  0  0  0  0  0  0
  -34.4934   70.9875   28.9810 C   0  0  0  0  0  0  0  0  0  0  0  0
  -33.0124   70.9731   29.2418 C   0  0  0  0  0  0  0  0  0  0  0  0
  -31.7143   70.7776   30.8632 H   0  0  0  0  0  0  0  0  0  0  0  0
  -33.3849   70.7071   31.2938 H   0  0  0  0  0  0  0  0  0  0  0  0
  1  4  2  0  0  0
  2  4  1  0  0  0
  2  5  1  0  0  0
  2  6  1  0  0  0
  3  4  1  0  0  0
M  END
> <minimizedAffinity>
-1.98501

$$$$
178


  6  5  0  0  0  0  0  0  0  0999 V2000
  -37.1116   69.0490   29.3258 O   0  0  0  0  0  0  0  0  0  0  0  0
  -35.6367   70.2678   30.6038 N   0  0  0  0  0  0  0  0  0  0  0  0
  -37.7933   69.7037   31.5261 C   0  0  0  0  0  0  0  0  0  0  0  0
  -36.8348   69.6357   30.3692 C   0  0  0  0  0  0  0  0  0  0  0  0
  -34.9089   70.2839   29.8970 H   0  0  0  0  0  0  0  0  0  0  0  0
  -35.4289   70.7355   31.4803 H   0  0  0  0  0  0  0  0  0  0  0  0
  1  4  2  0  0  0
  2  4  1  0  0  0
  2  5  1  0  0  0
  2  6  1  0  0  0
  3  4  1  0  0  0
M  END
> <minimizedAffinity>
-1.97995

$$$$
178


  6  5  0  0  0  0  0  0  0  0999 V2000
  -37.8417   64.1083   32.7107 O   0  0  0  0  0  0  0  0  0  0  0  0
  -39.2096   62.3029   33.1151 N   0  0  0  0  0  0  0  0  0  0  0  0
  -39.9267   63.9831   31.5396 C   0  0  0  0  0  0  0  0  0  0  0  0
  -38.8859   63.4933   32.5083 C   0  0  0  0  0  0  0  0  0  0  0  0
  -38.5812   61.8718   33.7851 H   0  0  0  0  0  0  0  0  0  0  0  0
  -40.0746   61.8089   32.9208 H   0  0  0  0  0  0  0  0  0  0  0  0
  1  4  2  0  0  0
  2  4  1  0  0  0
  2  5  1  0  0  0
  2  6  1  0  0  0
  3  4  1  0  0  0
M  END
> <minimizedAffinity>
-1.97722

$$$$
178


  6  5  0  0  0  0  0  0  0  0999 V2000
  -34.8448   70.5045   30.5589 O   0  0  0  0  0  0  0  0  0  0  0  0
  -34.5893   72.7867   30.7008 N   0  0  0  0  0  0  0  0  0  0  0  0
  -32.6256   71.4016   30.4885 C   0  0  0  0  0  0  0  0  0  0  0  0
  -34.1229   71.4981   30.5905 C   0  0  0  0  0  0  0  0  0  0  0  0
  -35.5835   72.9767   30.7716 H   0  0  0  0  0  0  0  0  0  0  0  0
  -33.9711   73.5916   30.7126 H   0  0  0  0  0  0  0  0  0  0  0  0
  1  4  2  0  0  0
  2  4  1  0  0  0
  2  5  1  0  0  0
  2  6  1  0  0  0
  3  4  1  0  0  0
M  END
> <minimizedAffinity>
-1.97557

$$$$
178


  6  5  0  0  0  0  0  0  0  0999 V2000
  -33.6278   70.4824   39.4414 O   0  0  0  0  0  0  0  0  0  0  0  0
  -34.5587   68.3986   39.1495 N   0  0  0  0  0  0  0  0  0  0  0  0
  -33.8547   69.0653   41.3585 C   0  0  0  0  0  0  0  0  0  0  0  0
  -33.9877   69.4001   39.8984 C   0  0  0  0  0  0  0  0  0  0  0  0
  -34.7042   68.5123   38.1518 H   0  0  0  0  0  0  0  0  0  0  0  0
  -34.8584   67.5175   39.5546 H   0  0  0  0  0  0  0  0  0  0  0  0
  1  4  2  0  0  0
  2  4  1  0  0  0
  2  5  1  0  0  0
  2  6  1  0  0  0
  3  4  1  0  0  0
M  END
> <minimizedAffinity>
-1.93148

$$$$
178


  6  5  0  0  0  0  0  0  0  0999 V2000
  -36.6760   72.4216   28.6004 O   0  0  0  0  0  0  0  0  0  0  0  0
  -35.3781   70.8778   27.4931 N   0  0  0  0  0  0  0  0  0  0  0  0
  -37.7799   70.6909   27.3673 C   0  0  0  0  0  0  0  0  0  0  0  0
  -36.5755   71.4219   27.8933 C   0  0  0  0  0  0  0  0  0  0  0  0
  -34.4965   71.2888   27.7821 H   0  0  0  0  0  0  0  0  0  0  0  0
  -35.3232   70.0573   26.8982 H   0  0  0  0  0  0  0  0  0  0  0  0
  1  4  2  0  0  0
  2  4  1  0  0  0
  2  5  1  0  0  0
  2  6  1  0  0  0
  3  4  1  0  0  0
M  END
> <minimizedAffinity>
-1.92812

$$$$
178


  6  5  0  0  0  0  0  0  0  0999 V2000
  -32.9770   72.7944   26.5723 O   0  0  0  0  0  0  0  0  0  0  0  0
  -32.9169   70.5350   26.1418 N   0  0  0  0  0  0  0  0  0  0  0  0
  -34.5647   71.3877   27.6837 C   0  0  0  0  0  0  0  0  0  0  0  0
  -33.4109   71.6601   26.7582 C   0  0  0  0  0  0  0  0  0  0  0  0
  -32.1407   70.5957   25.4911 H   0  0  0  0  0  0  0  0  0  0  0  0
  -33.3020   69.6101   26.3043 H   0  0  0  0  0  0  0  0  0  0  0  0
  1  4  2  0  0  0
  2  4  1  0  0  0
  2  5  1  0  0  0
  2  6  1  0  0  0
  3  4  1  0  0  0
M  END
> <minimizedAffinity>
-1.92785

$$$$
178


  6  5  0  0  0  0  0  0  0  0999 V2000
  -40.5320   59.8123   35.1234 O   0  0  0  0  0  0  0  0  0  0  0  0
  -42.7582   59.9204   35.6944 N   0  0  0  0  0  0  0  0  0  0  0  0
  -41.2451   61.5834   36.5687 C   0  0  0  0  0  0  0  0  0  0  0  0
  -41.4540   60.3537   35.7286 C   0  0  0  0  0  0  0  0  0  0  0  0
  -43.0214   59.1018   35.1557 H   0  0  0  0  0  0  0  0  0  0  0  0
  -43.5038   60.3936   36.1949 H   0  0  0  0  0  0  0  0  0  0  0  0
  1  4  2  0  0  0
  2  4  1  0  0  0
  2  5  1  0  0  0
  2  6  1  0  0  0
  3  4  1  0  0  0
M  END
> <minimizedAffinity>
-1.90679

$$$$
178


  6  5  0  0  0  0  0  0  0  0999 V2000
  -38.8467   64.5440   30.8443 O   0  0  0  0  0  0  0  0  0  0  0  0
  -40.5682   66.0674   30.7467 N   0  0  0  0  0  0  0  0  0  0  0  0
  -38.3516   66.7655   30.0995 C   0  0  0  0  0  0  0  0  0  0  0  0
  -39.2579   65.6766   30.6042 C   0  0  0  0  0  0  0  0  0  0  0  0
  -41.2734   65.4162   31.0757 H   0  0  0  0  0  0  0  0  0  0  0  0
  -40.8840   67.0073   30.5296 H   0  0  0  0  0  0  0  0  0  0  0  0
  1  4  2  0  0  0
  2  4  1  0  0  0
  2  5  1  0  0  0
  2  6  1  0  0  0
  3  4  1  0  0  0
M  END
> <minimizedAffinity>
-1.89576

$$$$
178


  6  5  0  0  0  0  0  0  0  0999 V2000
  -34.6220   67.1680   41.0658 O   0  0  0  0  0  0  0  0  0  0  0  0
  -32.8378   68.3679   41.8848 N   0  0  0  0  0  0  0  0  0  0  0  0
  -34.1594   69.3099   40.1000 C   0  0  0  0  0  0  0  0  0  0  0  0
  -33.9099   68.1690   41.0475 C   0  0  0  0  0  0  0  0  0  0  0  0
  -32.5757   67.6680   42.5711 H   0  0  0  0  0  0  0  0  0  0  0  0
  -32.2726   69.2105   41.8569 H   0  0  0  0  0  0  0  0  0  0  0  0
  1  4  2  0  0  0
  2  4  1  0  0  0
  2  5  1  0  0  0
  2  6  1  0  0  0
  3  4  1  0  0  0
M  END
> <minimizedAffinity>
-1.88727

$$$$
178


  6  5  0  0  0  0  0  0  0  0999 V2000
  -35.8801   72.3195   29.2172 O   0  0  0  0  0  0  0  0  0  0  0  0
  -35.1873   70.9093   27.5364 N   0  0  0  0  0  0  0  0  0  0  0  0
  -34.7345   73.2708   27.3417 C   0  0  0  0  0  0  0  0  0  0  0  0
  -35.3322   72.1396   28.1323 C   0  0  0  0  0  0  0  0  0  0  0  0
  -35.5469   70.0702   27.9793 H   0  0  0  0  0  0  0  0  0  0  0  0
  -34.7194   70.7868   26.6441 H   0  0  0  0  0  0  0  0  0  0  0  0
  1  4  2  0  0  0
  2  4  1  0  0  0
  2  5  1  0  0  0
  2  6  1  0  0  0
  3  4  1  0  0  0
M  END
> <minimizedAffinity>
-1.88027

$$$$
178


  6  5  0  0  0  0  0  0  0  0999 V2000
  -39.5903   65.1515   33.4184 O   0  0  0  0  0  0  0  0  0  0  0  0
  -37.6909   65.0910   32.1214 N   0  0  0  0  0  0  0  0  0  0  0  0
  -39.8202   65.4855   31.0583 C   0  0  0  0  0  0  0  0  0  0  0  0
  -39.0449   65.2221   32.3198 C   0  0  0  0  0  0  0  0  0  0  0  0
  -37.0647   64.9160   32.9004 H   0  0  0  0  0  0  0  0  0  0  0  0
  -37.2641   65.1656   31.2035 H   0  0  0  0  0  0  0  0  0  0  0  0
  1  4  2  0  0  0
  2  4  1  0  0  0
  2  5  1  0  0  0
  2  6  1  0  0  0
  3  4  1  0  0  0
M  END
> <minimizedAffinity>
-1.87371

$$$$
178


  6  5  0  0  0  0  0  0  0  0999 V2000
  -41.6427   66.0448   32.7198 O   0  0  0  0  0  0  0  0  0  0  0  0
  -40.5746   66.9748   30.9065 N   0  0  0  0  0  0  0  0  0  0  0  0
  -40.9599   64.5936   30.9415 C   0  0  0  0  0  0  0  0  0  0  0  0
  -41.0963   65.9258   31.6258 C   0  0  0  0  0  0  0  0  0  0  0  0
  -40.6130   67.9230   31.2655 H   0  0  0  0  0  0  0  0  0  0  0  0
  -40.1384   66.8503   29.9984 H   0  0  0  0  0  0  0  0  0  0  0  0
  1  4  2  0  0  0
  2  4  1  0  0  0
  2  5  1  0  0  0
  2  6  1  0  0  0
  3  4  1  0  0  0
M  END
> <minimizedAffinity>
-1.85543

$$$$
178


  6  5  0  0  0  0  0  0  0  0999 V2000
  -41.0970   62.6471   33.1587 O   0  0  0  0  0  0  0  0  0  0  0  0
  -42.8103   61.6632   34.3378 N   0  0  0  0  0  0  0  0  0  0  0  0
  -40.7717   60.4228   33.9841 C   0  0  0  0  0  0  0  0  0  0  0  0
  -41.5579   61.6870   33.7713 C   0  0  0  0  0  0  0  0  0  0  0  0
  -43.4310   62.4625   34.2637 H   0  0  0  0  0  0  0  0  0  0  0  0
  -43.1626   60.8606   34.8495 H   0  0  0  0  0  0  0  0  0  0  0  0
  1  4  2  0  0  0
  2  4  1  0  0  0
  2  5  1  0  0  0
  2  6  1  0  0  0
  3  4  1  0  0  0
M  END
> <minimizedAffinity>
-1.84846

$$$$
178


  6  5  0  0  0  0  0  0  0  0999 V2000
  -38.3262   72.7564   30.5220 O   0  0  0  0  0  0  0  0  0  0  0  0
  -39.9267   71.9935   29.0556 N   0  0  0  0  0  0  0  0  0  0  0  0
  -37.6364   72.1418   28.3127 C   0  0  0  0  0  0  0  0  0  0  0  0
  -38.6445   72.3392   29.4110 C   0  0  0  0  0  0  0  0  0  0  0  0
  -40.6918   72.0795   29.7165 H   0  0  0  0  0  0  0  0  0  0  0  0
  -40.1608   71.6397   28.1335 H   0  0  0  0  0  0  0  0  0  0  0  0
  1  4  2  0  0  0
  2  4  1  0  0  0
  2  5  1  0  0  0
  2  6  1  0  0  0
  3  4  1  0  0  0
M  END
> <minimizedAffinity>
-1.82954

$$$$
178


  6  5  0  0  0  0  0  0  0  0999 V2000
  -39.1708   69.4144   30.8574 O   0  0  0  0  0  0  0  0  0  0  0  0
  -38.5563   67.6820   32.2412 N   0  0  0  0  0  0  0  0  0  0  0  0
  -38.1788   67.4724   29.8678 C   0  0  0  0  0  0  0  0  0  0  0  0
  -38.6926   68.2941   31.0178 C   0  0  0  0  0  0  0  0  0  0  0  0
  -38.8635   68.1427   33.0915 H   0  0  0  0  0  0  0  0  0  0  0  0
  -38.1463   66.7596   32.3472 H   0  0  0  0  0  0  0  0  0  0  0  0
  1  4  2  0  0  0
  2  4  1  0  0  0
  2  5  1  0  0  0
  2  6  1  0  0  0
  3  4  1  0  0  0
M  END
> <minimizedAffinity>
-1.82452

$$$$
178


  6  5  0  0  0  0  0  0  0  0999 V2000
  -34.8637   73.2487   29.4870 O   0  0  0  0  0  0  0  0  0  0  0  0
  -34.2102   73.9051   27.3808 N   0  0  0  0  0  0  0  0  0  0  0  0
  -34.8904   71.6177   27.7337 C   0  0  0  0  0  0  0  0  0  0  0  0
  -34.6549   72.9890   28.3044 C   0  0  0  0  0  0  0  0  0  0  0  0
  -34.0212   74.8654   27.6486 H   0  0  0  0  0  0  0  0  0  0  0  0
  -34.0570   73.6670   26.4061 H   0  0  0  0  0  0  0  0  0  0  0  0
  1  4  2  0  0  0
  2  4  1  0  0  0
  2  5  1  0  0  0
  2  6  1  0  0  0
  3  4  1  0  0  0
M  END
> <minimizedAffinity>
-1.82305

$$$$
178


  6  5  0  0  0  0  0  0  0  0999 V2000
  -33.6787   73.5821   37.0544 O   0  0  0  0  0  0  0  0  0  0  0  0
  -33.6977   71.6567   38.3139 N   0  0  0  0  0  0  0  0  0  0  0  0
  -35.5739   73.1663   38.4579 C   0  0  0  0  0  0  0  0  0  0  0  0
  -34.2279   72.8446   37.8693 C   0  0  0  0  0  0  0  0  0  0  0  0
  -32.7953   71.3323   37.9823 H   0  0  0  0  0  0  0  0  0  0  0  0
  -34.1783   71.0598   38.9794 H   0  0  0  0  0  0  0  0  0  0  0  0
  1  4  2  0  0  0
  2  4  1  0  0  0
  2  5  1  0  0  0
  2  6  1  0  0  0
  3  4  1  0  0  0
M  END
> <minimizedAffinity>
-1.80775

$$$$
178


  6  5  0  0  0  0  0  0  0  0999 V2000
  -40.9077   66.7188   30.9630 O   0  0  0  0  0  0  0  0  0  0  0  0
  -40.5937   64.4410   31.0481 N   0  0  0  0  0  0  0  0  0  0  0  0
  -38.6938   65.8682   30.6317 C   0  0  0  0  0  0  0  0  0  0  0  0
  -40.1699   65.7391   30.8890 C   0  0  0  0  0  0  0  0  0  0  0  0
  -41.5691   64.2301   31.2314 H   0  0  0  0  0  0  0  0  0  0  0  0
  -39.9604   63.6497   30.9938 H   0  0  0  0  0  0  0  0  0  0  0  0
  1  4  2  0  0  0
  2  4  1  0  0  0
  2  5  1  0  0  0
  2  6  1  0  0  0
  3  4  1  0  0  0
M  END
> <minimizedAffinity>
-1.80211

$$$$
178


  6  5  0  0  0  0  0  0  0  0999 V2000
  -33.1023   71.3870   38.9661 O   0  0  0  0  0  0  0  0  0  0  0  0
  -32.9366   73.3854   40.0942 N   0  0  0  0  0  0  0  0  0  0  0  0
  -31.5118   72.9984   38.1864 C   0  0  0  0  0  0  0  0  0  0  0  0
  -32.5866   72.4929   39.1089 C   0  0  0  0  0  0  0  0  0  0  0  0
  -33.6549   73.1566   40.7734 H   0  0  0  0  0  0  0  0  0  0  0  0
  -32.5024   74.2986   40.1826 H   0  0  0  0  0  0  0  0  0  0  0  0
  1  4  2  0  0  0
  2  4  1  0  0  0
  2  5  1  0  0  0
  2  6  1  0  0  0
  3  4  1  0  0  0
M  END
> <minimizedAffinity>
-1.79306

$$$$
178


  6  5  0  0  0  0  0  0  0  0999 V2000
  -35.2155   73.1200   29.7728 O   0  0  0  0  0  0  0  0  0  0  0  0
  -33.4824   73.9066   28.4799 N   0  0  0  0  0  0  0  0  0  0  0  0
  -32.9771   72.7845   30.5548 C   0  0  0  0  0  0  0  0  0  0  0  0
  -34.0124   73.2823   29.5842 C   0  0  0  0  0  0  0  0  0  0  0  0
  -34.0844   74.2797   27.7533 H   0  0  0  0  0  0  0  0  0  0  0  0
  -32.4829   74.0171   28.3427 H   0  0  0  0  0  0  0  0  0  0  0  0
  1  4  2  0  0  0
  2  4  1  0  0  0
  2  5  1  0  0  0
  2  6  1  0  0  0
  3  4  1  0  0  0
M  END
> <minimizedAffinity>
-1.74472

$$$$
178


  6  5  0  0  0  0  0  0  0  0999 V2000
  -32.2707   73.0380   27.7886 O   0  0  0  0  0  0  0  0  0  0  0  0
  -33.6328   73.8986   29.4312 N   0  0  0  0  0  0  0  0  0  0  0  0
  -34.5496   73.5196   27.2321 C   0  0  0  0  0  0  0  0  0  0  0  0
  -33.3645   73.4598   28.1562 C   0  0  0  0  0  0  0  0  0  0  0  0
  -32.9111   73.9002   30.1443 H   0  0  0  0  0  0  0  0  0  0  0  0
  -34.5496   74.2314   29.7121 H   0  0  0  0  0  0  0  0  0  0  0  0
  1  4  2  0  0  0
  2  4  1  0  0  0
  2  5  1  0  0  0
  2  6  1  0  0  0
  3  4  1  0  0  0
M  END
> <minimizedAffinity>
-1.74140

$$$$
178


  6  5  0  0  0  0  0  0  0  0999 V2000
  -38.2825   66.9300   30.8611 O   0  0  0  0  0  0  0  0  0  0  0  0
  -39.6291   68.6460   30.1289 N   0  0  0  0  0  0  0  0  0  0  0  0
  -40.6547   66.6713   31.0608 C   0  0  0  0  0  0  0  0  0  0  0  0
  -39.4000   67.4061   30.6770 C   0  0  0  0  0  0  0  0  0  0  0  0
  -38.8580   69.2366   29.8357 H   0  0  0  0  0  0  0  0  0  0  0  0
  -40.5633   69.0208   29.9987 H   0  0  0  0  0  0  0  0  0  0  0  0
  1  4  2  0  0  0
  2  4  1  0  0  0
  2  5  1  0  0  0
  2  6  1  0  0  0
  3  4  1  0  0  0
M  END
> <minimizedAffinity>
-1.74106

$$$$
178


  6  5  0  0  0  0  0  0  0  0999 V2000
  -39.3853   70.9166   30.3167 O   0  0  0  0  0  0  0  0  0  0  0  0
  -38.8238   68.9047   29.3518 N   0  0  0  0  0  0  0  0  0  0  0  0
  -40.5980   70.2150   28.3746 C   0  0  0  0  0  0  0  0  0  0  0  0
  -39.5576   70.0631   29.4499 C   0  0  0  0  0  0  0  0  0  0  0  0
  -38.0892   68.6951   30.0196 H   0  0  0  0  0  0  0  0  0  0  0  0
  -38.9790   68.2209   28.6179 H   0  0  0  0  0  0  0  0  0  0  0  0
  1  4  2  0  0  0
  2  4  1  0  0  0
  2  5  1  0  0  0
  2  6  1  0  0  0
  3  4  1  0  0  0
M  END
> <minimizedAffinity>
-1.73327

$$$$
178


  6  5  0  0  0  0  0  0  0  0999 V2000
  -39.3715   62.6114   33.6309 O   0  0  0  0  0  0  0  0  0  0  0  0
  -41.6301   62.1788   33.5572 N   0  0  0  0  0  0  0  0  0  0  0  0
  -40.6894   63.7514   31.9883 C   0  0  0  0  0  0  0  0  0  0  0  0
  -40.4802   62.8048   33.1381 C   0  0  0  0  0  0  0  0  0  0  0  0
  -41.6118   61.5139   34.3235 H   0  0  0  0  0  0  0  0  0  0  0  0
  -42.5324   62.3480   33.1243 H   0  0  0  0  0  0  0  0  0  0  0  0
  1  4  2  0  0  0
  2  4  1  0  0  0
  2  5  1  0  0  0
  2  6  1  0  0  0
  3  4  1  0  0  0
M  END
> <minimizedAffinity>
-1.72500

$$$$
178


  6  5  0  0  0  0  0  0  0  0999 V2000
  -36.8780   70.0912   31.8200 O   0  0  0  0  0  0  0  0  0  0  0  0
  -38.1772   68.3116   31.1572 N   0  0  0  0  0  0  0  0  0  0  0  0
  -39.1908   70.0850   32.4406 C   0  0  0  0  0  0  0  0  0  0  0  0
  -37.9615   69.5128   31.7903 C   0  0  0  0  0  0  0  0  0  0  0  0
  -37.4219   67.8320   30.6785 H   0  0  0  0  0  0  0  0  0  0  0  0
  -39.0862   67.8606   31.1376 H   0  0  0  0  0  0  0  0  0  0  0  0
  1  4  2  0  0  0
  2  4  1  0  0  0
  2  5  1  0  0  0
  2  6  1  0  0  0
  3  4  1  0  0  0
M  END
> <minimizedAffinity>
-1.71561

$$$$
178


  6  5  0  0  0  0  0  0  0  0999 V2000
  -37.5289   71.3995   32.3286 O   0  0  0  0  0  0  0  0  0  0  0  0
  -38.2238   70.7489   30.2339 N   0  0  0  0  0  0  0  0  0  0  0  0
  -35.8903   70.5396   30.8087 C   0  0  0  0  0  0  0  0  0  0  0  0
  -37.2800   70.9478   31.2135 C   0  0  0  0  0  0  0  0  0  0  0  0
  -39.1981   70.9830   30.3939 H   0  0  0  0  0  0  0  0  0  0  0  0
  -37.9930   70.3626   29.3242 H   0  0  0  0  0  0  0  0  0  0  0  0
  1  4  2  0  0  0
  2  4  1  0  0  0
  2  5  1  0  0  0
  2  6  1  0  0  0
  3  4  1  0  0  0
M  END
> <minimizedAffinity>
-1.69335

$$$$
178


  6  5  0  0  0  0  0  0  0  0999 V2000
  -39.3375   66.0766   32.3023 O   0  0  0  0  0  0  0  0  0  0  0  0
  -38.4567   68.2022   32.3115 N   0  0  0  0  0  0  0  0  0  0  0  0
  -40.4047   67.7383   33.6568 C   0  0  0  0  0  0  0  0  0  0  0  0
  -39.3645   67.2419   32.6906 C   0  0  0  0  0  0  0  0  0  0  0  0
  -37.7052   67.9828   31.6660 H   0  0  0  0  0  0  0  0  0  0  0  0
  -38.4948   69.1558   32.6569 H   0  0  0  0  0  0  0  0  0  0  0  0
  1  4  2  0  0  0
  2  4  1  0  0  0
  2  5  1  0  0  0
  2  6  1  0  0  0
  3  4  1  0  0  0
M  END
> <minimizedAffinity>
-1.68823

$$$$
178


  6  5  0  0  0  0  0  0  0  0999 V2000
  -33.3203   71.6821   28.6493 O   0  0  0  0  0  0  0  0  0  0  0  0
  -33.9825   73.8817   28.5187 N   0  0  0  0  0  0  0  0  0  0  0  0
  -32.9139   72.8674   26.6085 C   0  0  0  0  0  0  0  0  0  0  0  0
  -33.4113   72.7343   28.0216 C   0  0  0  0  0  0  0  0  0  0  0  0
  -34.3584   73.9107   29.4607 H   0  0  0  0  0  0  0  0  0  0  0  0
  -34.0557   74.7351   27.9741 H   0  0  0  0  0  0  0  0  0  0  0  0
  1  4  2  0  0  0
  2  4  1  0  0  0
  2  5  1  0  0  0
  2  6  1  0  0  0
  3  4  1  0  0  0
M  END
> <minimizedAffinity>
-1.68438

$$$$
178


  6  5  0  0  0  0  0  0  0  0999 V2000
  -36.6509   71.1885   31.6546 O   0  0  0  0  0  0  0  0  0  0  0  0
  -35.5821   73.0663   30.8636 N   0  0  0  0  0  0  0  0  0  0  0  0
  -37.9938   73.0123   30.8767 C   0  0  0  0  0  0  0  0  0  0  0  0
  -36.6931   72.3167   31.1699 C   0  0  0  0  0  0  0  0  0  0  0  0
  -34.6482   72.7028   31.0228 H   0  0  0  0  0  0  0  0  0  0  0  0
  -35.6451   74.0016   30.4746 H   0  0  0  0  0  0  0  0  0  0  0  0
  1  4  2  0  0  0
  2  4  1  0  0  0
  2  5  1  0  0  0
  2  6  1  0  0  0
  3  4  1  0  0  0
M  END
> <minimizedAffinity>
-1.67230

$$$$
178


  6  5  0  0  0  0  0  0  0  0999 V2000
  -32.2612   72.1486   28.1430 O   0  0  0  0  0  0  0  0  0  0  0  0
  -32.4116   73.2488   26.1278 N   0  0  0  0  0  0  0  0  0  0  0  0
  -32.7845   70.8662   26.1895 C   0  0  0  0  0  0  0  0  0  0  0  0
  -32.4544   72.1330   26.9298 C   0  0  0  0  0  0  0  0  0  0  0  0
  -32.2031   74.1624   26.5169 H   0  0  0  0  0  0  0  0  0  0  0  0
  -32.5870   73.2100   25.1289 H   0  0  0  0  0  0  0  0  0  0  0  0
  1  4  2  0  0  0
  2  4  1  0  0  0
  2  5  1  0  0  0
  2  6  1  0  0  0
  3  4  1  0  0  0
M  END
> <minimizedAffinity>
-1.64555

$$$$
178


  6  5  0  0  0  0  0  0  0  0999 V2000
  -34.6416   70.1177   41.5940 O   0  0  0  0  0  0  0  0  0  0  0  0
  -34.1874   70.0387   39.3398 N   0  0  0  0  0  0  0  0  0  0  0  0
  -34.2761   67.9758   40.5874 C   0  0  0  0  0  0  0  0  0  0  0  0
  -34.3839   69.4759   40.5786 C   0  0  0  0  0  0  0  0  0  0  0  0
  -34.2406   71.0436   39.2097 H   0  0  0  0  0  0  0  0  0  0  0  0
  -33.9873   69.4838   38.5139 H   0  0  0  0  0  0  0  0  0  0  0  0
  1  4  2  0  0  0
  2  4  1  0  0  0
  2  5  1  0  0  0
  2  6  1  0  0  0
  3  4  1  0  0  0
M  END
> <minimizedAffinity>
-1.62683

$$$$
178


  6  5  0  0  0  0  0  0  0  0999 V2000
  -37.7457   71.7141   32.6638 O   0  0  0  0  0  0  0  0  0  0  0  0
  -38.3096   73.9050   32.2444 N   0  0  0  0  0  0  0  0  0  0  0  0
  -36.2122   73.0569   31.4069 C   0  0  0  0  0  0  0  0  0  0  0  0
  -37.4831   72.8088   32.1719 C   0  0  0  0  0  0  0  0  0  0  0  0
  -39.1983   73.8561   32.7316 H   0  0  0  0  0  0  0  0  0  0  0  0
  -38.0737   74.7955   31.8184 H   0  0  0  0  0  0  0  0  0  0  0  0
  1  4  2  0  0  0
  2  4  1  0  0  0
  2  5  1  0  0  0
  2  6  1  0  0  0
  3  4  1  0  0  0
M  END
> <minimizedAffinity>
-1.60369

$$$$
178


  6  5  0  0  0  0  0  0  0  0999 V2000
  -40.3224   67.2459   34.8155 O   0  0  0  0  0  0  0  0  0  0  0  0
  -39.7142   65.9211   33.0353 N   0  0  0  0  0  0  0  0  0  0  0  0
  -39.7706   68.3153   32.7451 C   0  0  0  0  0  0  0  0  0  0  0  0
  -39.9733   67.1264   33.6436 C   0  0  0  0  0  0  0  0  0  0  0  0
  -39.8121   65.0488   33.5445 H   0  0  0  0  0  0  0  0  0  0  0  0
  -39.4153   65.8511   32.0679 H   0  0  0  0  0  0  0  0  0  0  0  0
  1  4  2  0  0  0
  2  4  1  0  0  0
  2  5  1  0  0  0
  2  6  1  0  0  0
  3  4  1  0  0  0
M  END
> <minimizedAffinity>
-1.59488

$$$$
178


  6  5  0  0  0  0  0  0  0  0999 V2000
  -34.6652   72.7409   38.2967 O   0  0  0  0  0  0  0  0  0  0  0  0
  -34.0289   70.7202   39.1942 N   0  0  0  0  0  0  0  0  0  0  0  0
  -32.4749   72.5645   39.2485 C   0  0  0  0  0  0  0  0  0  0  0  0
  -33.8270   72.0370   38.8547 C   0  0  0  0  0  0  0  0  0  0  0  0
  -34.9063   70.2562   38.9831 H   0  0  0  0  0  0  0  0  0  0  0  0
  -33.3231   70.1639   39.6660 H   0  0  0  0  0  0  0  0  0  0  0  0
  1  4  2  0  0  0
  2  4  1  0  0  0
  2  5  1  0  0  0
  2  6  1  0  0  0
  3  4  1  0  0  0
M  END
> <minimizedAffinity>
-1.55970

$$$$
178


  6  5  0  0  0  0  0  0  0  0999 V2000
  -37.5263   67.9370   40.7688 O   0  0  0  0  0  0  0  0  0  0  0  0
  -36.2499   66.7251   39.2869 N   0  0  0  0  0  0  0  0  0  0  0  0
  -35.5087   68.9258   39.9404 C   0  0  0  0  0  0  0  0  0  0  0  0
  -36.5369   67.8335   40.0478 C   0  0  0  0  0  0  0  0  0  0  0  0
  -36.8694   65.9215   39.2825 H   0  0  0  0  0  0  0  0  0  0  0  0
  -35.4184   66.6607   38.7084 H   0  0  0  0  0  0  0  0  0  0  0  0
  1  4  2  0  0  0
  2  4  1  0  0  0
  2  5  1  0  0  0
  2  6  1  0  0  0
  3  4  1  0  0  0
M  END
> <minimizedAffinity>
-1.55940

$$$$
178


  6  5  0  0  0  0  0  0  0  0999 V2000
  -37.7347   72.1948   28.5868 O   0  0  0  0  0  0  0  0  0  0  0  0
  -35.7433   72.7000   29.6227 N   0  0  0  0  0  0  0  0  0  0  0  0
  -36.0179   70.5256   28.6148 C   0  0  0  0  0  0  0  0  0  0  0  0
  -36.6005   71.8748   28.9341 C   0  0  0  0  0  0  0  0  0  0  0  0
  -36.0247   73.6377   29.8894 H   0  0  0  0  0  0  0  0  0  0  0  0
  -34.8060   72.4146   29.8874 H   0  0  0  0  0  0  0  0  0  0  0  0
  1  4  2  0  0  0
  2  4  1  0  0  0
  2  5  1  0  0  0
  2  6  1  0  0  0
  3  4  1  0  0  0
M  END
> <minimizedAffinity>
-1.54655

$$$$
178


  6  5  0  0  0  0  0  0  0  0999 V2000
  -36.5747   73.8726   33.3394 O   0  0  0  0  0  0  0  0  0  0  0  0
  -36.8961   72.7629   31.3496 N   0  0  0  0  0  0  0  0  0  0  0  0
  -38.7637   73.8999   32.3689 C   0  0  0  0  0  0  0  0  0  0  0  0
  -37.3102   73.5176   32.4215 C   0  0  0  0  0  0  0  0  0  0  0  0
  -35.9341   72.4496   31.2736 H   0  0  0  0  0  0  0  0  0  0  0  0
  -37.5224   72.4931   30.5978 H   0  0  0  0  0  0  0  0  0  0  0  0
  1  4  2  0  0  0
  2  4  1  0  0  0
  2  5  1  0  0  0
  2  6  1  0  0  0
  3  4  1  0  0  0
M  END
> <minimizedAffinity>
-1.52227

$$$$
178


  6  5  0  0  0  0  0  0  0  0999 V2000
  -37.9903   72.4955   28.6350 O   0  0  0  0  0  0  0  0  0  0  0  0
  -36.8416   71.1463   30.1027 N   0  0  0  0  0  0  0  0  0  0  0  0
  -38.0543   73.0451   30.9648 C   0  0  0  0  0  0  0  0  0  0  0  0
  -37.6334   72.2224   29.7784 C   0  0  0  0  0  0  0  0  0  0  0  0
  -36.5001   70.5156   29.3849 H   0  0  0  0  0  0  0  0  0  0  0  0
  -36.5708   70.9363   31.0580 H   0  0  0  0  0  0  0  0  0  0  0  0
  1  4  2  0  0  0
  2  4  1  0  0  0
  2  5  1  0  0  0
  2  6  1  0  0  0
  3  4  1  0  0  0
M  END
> <minimizedAffinity>
-1.48910

$$$$
178


  6  5  0  0  0  0  0  0  0  0999 V2000
  -43.5508   63.3049   39.2975 O   0  0  0  0  0  0  0  0  0  0  0  0
  -41.4396   63.0934   40.1875 N   0  0  0  0  0  0  0  0  0  0  0  0
  -41.7700   62.6397   37.8413 C   0  0  0  0  0  0  0  0  0  0  0  0
  -42.3585   63.0393   39.1663 C   0  0  0  0  0  0  0  0  0  0  0  0
  -41.7194   63.3561   41.1268 H   0  0  0  0  0  0  0  0  0  0  0  0
  -40.4570   62.8802   40.0492 H   0  0  0  0  0  0  0  0  0  0  0  0
  1  4  2  0  0  0
  2  4  1  0  0  0
  2  5  1  0  0  0
  2  6  1  0  0  0
  3  4  1  0  0  0
M  END
> <minimizedAffinity>
-1.48496

$$$$
178


  6  5  0  0  0  0  0  0  0  0999 V2000
  -38.2460   68.3081   31.6275 O   0  0  0  0  0  0  0  0  0  0  0  0
  -39.2530   70.1647   32.5402 N   0  0  0  0  0  0  0  0  0  0  0  0
  -40.0354   67.9754   33.1837 C   0  0  0  0  0  0  0  0  0  0  0  0
  -39.0900   68.8109   32.3653 C   0  0  0  0  0  0  0  0  0  0  0  0
  -38.6680   70.8284   32.0434 H   0  0  0  0  0  0  0  0  0  0  0  0
  -39.9510   70.5540   33.1657 H   0  0  0  0  0  0  0  0  0  0  0  0
  1  4  2  0  0  0
  2  4  1  0  0  0
  2  5  1  0  0  0
  2  6  1  0  0  0
  3  4  1  0  0  0
M  END
> <minimizedAffinity>
-1.44905

$$$$
178


  6  5  0  0  0  0  0  0  0  0999 V2000
  -40.3938   66.9357   35.7049 O   0  0  0  0  0  0  0  0  0  0  0  0
  -41.5542   65.0030   36.1654 N   0  0  0  0  0  0  0  0  0  0  0  0
  -40.0471   65.8861   37.8292 C   0  0  0  0  0  0  0  0  0  0  0  0
  -40.6635   66.0070   36.4628 C   0  0  0  0  0  0  0  0  0  0  0  0
  -42.0366   64.9819   35.2730 H   0  0  0  0  0  0  0  0  0  0  0  0
  -41.7681   64.2531   36.8151 H   0  0  0  0  0  0  0  0  0  0  0  0
  1  4  2  0  0  0
  2  4  1  0  0  0
  2  5  1  0  0  0
  2  6  1  0  0  0
  3  4  1  0  0  0
M  END
> <minimizedAffinity>
-1.39974

$$$$
178


  6  5  0  0  0  0  0  0  0  0999 V2000
  -41.1050   62.9085   32.8896 O   0  0  0  0  0  0  0  0  0  0  0  0
  -41.4721   64.9445   33.8964 N   0  0  0  0  0  0  0  0  0  0  0  0
  -39.9198   63.4017   34.9111 C   0  0  0  0  0  0  0  0  0  0  0  0
  -40.8866   63.7045   33.7996 C   0  0  0  0  0  0  0  0  0  0  0  0
  -42.1387   65.2618   33.2004 H   0  0  0  0  0  0  0  0  0  0  0  0
  -41.2648   65.5883   34.6532 H   0  0  0  0  0  0  0  0  0  0  0  0
  1  4  2  0  0  0
  2  4  1  0  0  0
  2  5  1  0  0  0
  2  6  1  0  0  0
  3  4  1  0  0  0
M  END
> <minimizedAffinity>
-1.34554

$$$$
178


  6  5  0  0  0  0  0  0  0  0999 V2000
  -41.5515   66.9185   37.9126 O   0  0  0  0  0  0  0  0  0  0  0  0
  -39.7502   65.5000   38.1048 N   0  0  0  0  0  0  0  0  0  0  0  0
  -40.6116   66.0046   35.9087 C   0  0  0  0  0  0  0  0  0  0  0  0
  -40.7040   66.1932   37.3978 C   0  0  0  0  0  0  0  0  0  0  0  0
  -39.7104   65.5538   39.1172 H   0  0  0  0  0  0  0  0  0  0  0  0
  -39.0532   64.9164   37.6533 H   0  0  0  0  0  0  0  0  0  0  0  0
  1  4  2  0  0  0
  2  4  1  0  0  0
  2  5  1  0  0  0
  2  6  1  0  0  0
  3  4  1  0  0  0
M  END
> <minimizedAffinity>
-1.33264

$$$$
178


  6  5  0  0  0  0  0  0  0  0999 V2000
  -39.9356   67.3500   34.1064 O   0  0  0  0  0  0  0  0  0  0  0  0
  -42.0206   66.3854   33.9782 N   0  0  0  0  0  0  0  0  0  0  0  0
  -41.7911   68.5353   35.0482 C   0  0  0  0  0  0  0  0  0  0  0  0
  -41.1412   67.3776   34.3417 C   0  0  0  0  0  0  0  0  0  0  0  0
  -41.6979   65.5560   33.4908 H   0  0  0  0  0  0  0  0  0  0  0  0
  -43.0149   66.4387   34.1746 H   0  0  0  0  0  0  0  0  0  0  0  0
  1  4  2  0  0  0
  2  4  1  0  0  0
  2  5  1  0  0  0
  2  6  1  0  0  0
  3  4  1  0  0  0
M  END
> <minimizedAffinity>
-1.32432

$$$$
178


  6  5  0  0  0  0  0  0  0  0999 V2000
  -42.4909   64.9104   36.4901 O   0  0  0  0  0  0  0  0  0  0  0  0
  -40.3762   64.0044   36.4544 N   0  0  0  0  0  0  0  0  0  0  0  0
  -41.9605   63.3419   34.7601 C   0  0  0  0  0  0  0  0  0  0  0  0
  -41.6583   64.1620   35.9839 C   0  0  0  0  0  0  0  0  0  0  0  0
  -40.0555   64.5111   37.2729 H   0  0  0  0  0  0  0  0  0  0  0  0
  -39.7037   63.3878   36.0097 H   0  0  0  0  0  0  0  0  0  0  0  0
  1  4  2  0  0  0
  2  4  1  0  0  0
  2  5  1  0  0  0
  2  6  1  0  0  0
  3  4  1  0  0  0
M  END
> <minimizedAffinity>
-1.22690

$$$$
178


  6  5  0  0  0  0  0  0  0  0999 V2000
  -41.4037   66.1972   32.4231 O   0  0  0  0  0  0  0  0  0  0  0  0
  -42.2249   66.9592   34.4329 N   0  0  0  0  0  0  0  0  0  0  0  0
  -41.4983   64.6653   34.2612 C   0  0  0  0  0  0  0  0  0  0  0  0
  -41.7014   66.0000   33.5987 C   0  0  0  0  0  0  0  0  0  0  0  0
  -42.4013   67.9007   34.0982 H   0  0  0  0  0  0  0  0  0  0  0  0
  -42.4511   66.7728   35.4046 H   0  0  0  0  0  0  0  0  0  0  0  0
  1  4  2  0  0  0
  2  4  1  0  0  0
  2  5  1  0  0  0
  2  6  1  0  0  0
  3  4  1  0  0  0
M  END
> <minimizedAffinity>
-1.22259

$$$$
178


  6  5  0  0  0  0  0  0  0  0999 V2000
  -44.7012   70.8559   34.4483 O   0  0  0  0  0  0  0  0  0  0  0  0
  -46.5882   70.9849   35.7585 N   0  0  0  0  0  0  0  0  0  0  0  0
  -46.0483   68.8908   34.6895 C   0  0  0  0  0  0  0  0  0  0  0  0
  -45.7008   70.3332   34.9352 C   0  0  0  0  0  0  0  0  0  0  0  0
  -46.4543   71.9613   35.9999 H   0  0  0  0  0  0  0  0  0  0  0  0
  -47.4007   70.5257   36.1575 H   0  0  0  0  0  0  0  0  0  0  0  0
  1  4  2  0  0  0
  2  4  1  0  0  0
  2  5  1  0  0  0
  2  6  1  0  0  0
  3  4  1  0  0  0
M  END
> <minimizedAffinity>
-1.22006

$$$$
178


  6  5  0  0  0  0  0  0  0  0999 V2000
  -43.4476   69.6588   35.3312 O   0  0  0  0  0  0  0  0  0  0  0  0
  -45.2239   68.3310   35.9441 N   0  0  0  0  0  0  0  0  0  0  0  0
  -45.6434   70.3135   34.6352 C   0  0  0  0  0  0  0  0  0  0  0  0
  -44.6532   69.4225   35.3335 C   0  0  0  0  0  0  0  0  0  0  0  0
  -44.6538   67.6558   36.4429 H   0  0  0  0  0  0  0  0  0  0  0  0
  -46.2228   68.1528   35.9207 H   0  0  0  0  0  0  0  0  0  0  0  0
  1  4  2  0  0  0
  2  4  1  0  0  0
  2  5  1  0  0  0
  2  6  1  0  0  0
  3  4  1  0  0  0
M  END
> <minimizedAffinity>
-1.04921

$$$$
178


  6  5  0  0  0  0  0  0  0  0999 V2000
  -32.4765   73.7250   27.9485 O   0  0  0  0  0  0  0  0  0  0  0  0
  -31.1807   71.8318   28.1233 N   0  0  0  0  0  0  0  0  0  0  0  0
  -30.9566   73.5599   29.7916 C   0  0  0  0  0  0  0  0  0  0  0  0
  -31.6166   73.0698   28.5323 C   0  0  0  0  0  0  0  0  0  0  0  0
  -31.5581   71.3961   27.2883 H   0  0  0  0  0  0  0  0  0  0  0  0
  -30.4767   71.3059   28.6313 H   0  0  0  0  0  0  0  0  0  0  0  0
  1  4  2  0  0  0
  2  4  1  0  0  0
  2  5  1  0  0  0
  2  6  1  0  0  0
  3  4  1  0  0  0
M  END
> <minimizedAffinity>
-0.46498

$$$$
