175


  4  3  0  0  0  0  0  0  0  0999 V2000
  -48.6204   70.0823   26.8382 O   0  0  0  0  0  0  0  0  0  0  0  0
  -46.6299   70.8450   27.6698 O   0  0  0  0  0  0  0  0  0  0  0  0
  -48.4763   72.2942   27.6284 C   0  0  0  0  0  0  0  0  0  0  0  0
  -47.8484   70.9394   27.3506 C   0  0  0  0  0  0  0  0  0  0  0  0
  1  4  1  0  0  0
  2  4  2  0  0  0
  3  4  1  0  0  0
M  CHG 1   1  -1
M  END
> <minimizedAffinity>
-3.52223

$$$$
175


  4  3  0  0  0  0  0  0  0  0999 V2000
  -47.5795   73.7369   26.3705 O   0  0  0  0  0  0  0  0  0  0  0  0
  -46.3143   71.8307   26.4010 O   0  0  0  0  0  0  0  0  0  0  0  0
  -45.4692   73.7407   25.3292 C   0  0  0  0  0  0  0  0  0  0  0  0
  -46.5635   73.0345   26.1106 C   0  0  0  0  0  0  0  0  0  0  0  0
  1  4  1  0  0  0
  2  4  2  0  0  0
  3  4  1  0  0  0
M  CHG 1   1  -1
M  END
> <minimizedAffinity>
-3.28231

$$$$
175


  4  3  0  0  0  0  0  0  0  0999 V2000
  -36.9932   62.1621   33.5883 O   0  0  0  0  0  0  0  0  0  0  0  0
  -36.1658   63.7163   32.1273 O   0  0  0  0  0  0  0  0  0  0  0  0
  -36.9875   61.6854   31.2839 C   0  0  0  0  0  0  0  0  0  0  0  0
  -36.6863   62.6114   32.4495 C   0  0  0  0  0  0  0  0  0  0  0  0
  1  4  1  0  0  0
  2  4  2  0  0  0
  3  4  1  0  0  0
M  CHG 1   1  -1
M  END
> <minimizedAffinity>
-2.72042

$$$$
175


  4  3  0  0  0  0  0  0  0  0999 V2000
  -36.1946   63.7133   32.1446 O   0  0  0  0  0  0  0  0  0  0  0  0
  -36.9716   62.1238   33.5954 O   0  0  0  0  0  0  0  0  0  0  0  0
  -36.9910   61.6696   31.2923 C   0  0  0  0  0  0  0  0  0  0  0  0
  -36.6887   62.5949   32.4581 C   0  0  0  0  0  0  0  0  0  0  0  0
  1  4  1  0  0  0
  2  4  2  0  0  0
  3  4  1  0  0  0
M  CHG 1   1  -1
M  END
> <minimizedAffinity>
-2.71703

$$$$
175


  4  3  0  0  0  0  0  0  0  0999 V2000
  -36.2108   63.6228   32.3129 O   0  0  0  0  0  0  0  0  0  0  0  0
  -37.4056   62.2587   30.9177 O   0  0  0  0  0  0  0  0  0  0  0  0
  -37.0830   61.6034   33.1487 C   0  0  0  0  0  0  0  0  0  0  0  0
  -36.8786   62.5939   32.0156 C   0  0  0  0  0  0  0  0  0  0  0  0
  1  4  1  0  0  0
  2  4  2  0  0  0
  3  4  1  0  0  0
M  CHG 1   1  -1
M  END
> <minimizedAffinity>
-2.68065

$$$$
175


  4  3  0  0  0  0  0  0  0  0999 V2000
  -37.8137   63.8922   31.0048 O   0  0  0  0  0  0  0  0  0  0  0  0
  -35.8691   63.6843   32.1925 O   0  0  0  0  0  0  0  0  0  0  0  0
  -36.8174   61.7710   31.2173 C   0  0  0  0  0  0  0  0  0  0  0  0
  -36.8369   63.2634   31.4984 C   0  0  0  0  0  0  0  0  0  0  0  0
  1  4  1  0  0  0
  2  4  2  0  0  0
  3  4  1  0  0  0
M  CHG 1   1  -1
M  END
> <minimizedAffinity>
-2.67400

$$$$
175


  4  3  0  0  0  0  0  0  0  0999 V2000
  -37.7289   62.1197   34.5841 O   0  0  0  0  0  0  0  0  0  0  0  0
  -39.3347   60.8172   35.5639 O   0  0  0  0  0  0  0  0  0  0  0  0
  -38.5290   60.2255   33.4398 C   0  0  0  0  0  0  0  0  0  0  0  0
  -38.5297   61.1462   34.6478 C   0  0  0  0  0  0  0  0  0  0  0  0
  1  4  1  0  0  0
  2  4  2  0  0  0
  3  4  1  0  0  0
M  CHG 1   1  -1
M  END
> <minimizedAffinity>
-2.58825

$$$$
175


  4  3  0  0  0  0  0  0  0  0999 V2000
  -39.3038   60.7944   35.5366 O   0  0  0  0  0  0  0  0  0  0  0  0
  -37.6961   62.1217   34.5940 O   0  0  0  0  0  0  0  0  0  0  0  0
  -38.5184   60.2909   33.3763 C   0  0  0  0  0  0  0  0  0  0  0  0
  -38.5061   61.1530   34.6266 C   0  0  0  0  0  0  0  0  0  0  0  0
  1  4  1  0  0  0
  2  4  2  0  0  0
  3  4  1  0  0  0
M  CHG 1   1  -1
M  END
> <minimizedAffinity>
-2.58663

$$$$
175


  4  3  0  0  0  0  0  0  0  0999 V2000
  -37.2902   61.2194   31.5898 O   0  0  0  0  0  0  0  0  0  0  0  0
  -36.9240   62.0050   33.7073 O   0  0  0  0  0  0  0  0  0  0  0  0
  -38.4590   60.2572   33.3913 C   0  0  0  0  0  0  0  0  0  0  0  0
  -37.4594   61.2589   32.8400 C   0  0  0  0  0  0  0  0  0  0  0  0
  1  4  1  0  0  0
  2  4  2  0  0  0
  3  4  1  0  0  0
M  CHG 1   1  -1
M  END
> <minimizedAffinity>
-2.52104

$$$$
175


  4  3  0  0  0  0  0  0  0  0999 V2000
  -37.4916   62.6130   31.0070 O   0  0  0  0  0  0  0  0  0  0  0  0
  -35.8643   63.7366   32.1578 O   0  0  0  0  0  0  0  0  0  0  0  0
  -38.0265   64.6462   32.0642 C   0  0  0  0  0  0  0  0  0  0  0  0
  -37.0304   63.5568   31.7067 C   0  0  0  0  0  0  0  0  0  0  0  0
  1  4  1  0  0  0
  2  4  2  0  0  0
  3  4  1  0  0  0
M  CHG 1   1  -1
M  END
> <minimizedAffinity>
-2.51547

$$$$
175


  4  3  0  0  0  0  0  0  0  0999 V2000
  -35.9310   63.7140   32.1749 O   0  0  0  0  0  0  0  0  0  0  0  0
  -37.6637   62.7097   31.0686 O   0  0  0  0  0  0  0  0  0  0  0  0
  -38.0127   64.8058   32.0664 C   0  0  0  0  0  0  0  0  0  0  0  0
  -37.1121   63.6275   31.7386 C   0  0  0  0  0  0  0  0  0  0  0  0
  1  4  1  0  0  0
  2  4  2  0  0  0
  3  4  1  0  0  0
M  CHG 1   1  -1
M  END
> <minimizedAffinity>
-2.51331

$$$$
175


  4  3  0  0  0  0  0  0  0  0999 V2000
  -32.8904   71.5788   38.8044 O   0  0  0  0  0  0  0  0  0  0  0  0
  -32.0571   72.2450   36.7804 O   0  0  0  0  0  0  0  0  0  0  0  0
  -34.0883   73.1528   37.5296 C   0  0  0  0  0  0  0  0  0  0  0  0
  -32.8948   72.2342   37.7258 C   0  0  0  0  0  0  0  0  0  0  0  0
  1  4  1  0  0  0
  2  4  2  0  0  0
  3  4  1  0  0  0
M  CHG 1   1  -1
M  END
> <minimizedAffinity>
-2.43067

$$$$
175


  4  3  0  0  0  0  0  0  0  0999 V2000
  -39.0231   66.8641   30.6365 O   0  0  0  0  0  0  0  0  0  0  0  0
  -37.9452   66.0506   28.7896 O   0  0  0  0  0  0  0  0  0  0  0  0
  -37.7174   68.3234   29.3315 C   0  0  0  0  0  0  0  0  0  0  0  0
  -38.2857   66.9438   29.6153 C   0  0  0  0  0  0  0  0  0  0  0  0
  1  4  1  0  0  0
  2  4  2  0  0  0
  3  4  1  0  0  0
M  CHG 1   1  -1
M  END
> <minimizedAffinity>
-2.41535

$$$$
175


  4  3  0  0  0  0  0  0  0  0999 V2000
  -36.2450   63.9055   32.2593 O   0  0  0  0  0  0  0  0  0  0  0  0
  -37.7820   64.7317   30.7794 O   0  0  0  0  0  0  0  0  0  0  0  0
  -38.5289   63.4529   32.6008 C   0  0  0  0  0  0  0  0  0  0  0  0
  -37.4065   64.0925   31.8021 C   0  0  0  0  0  0  0  0  0  0  0  0
  1  4  1  0  0  0
  2  4  2  0  0  0
  3  4  1  0  0  0
M  CHG 1   1  -1
M  END
> <minimizedAffinity>
-2.36441

$$$$
175


  4  3  0  0  0  0  0  0  0  0999 V2000
  -39.5526   60.4936   35.6870 O   0  0  0  0  0  0  0  0  0  0  0  0
  -40.9662   60.2676   33.9021 O   0  0  0  0  0  0  0  0  0  0  0  0
  -38.6510   60.1096   33.5475 C   0  0  0  0  0  0  0  0  0  0  0  0
  -39.8395   60.3104   34.4716 C   0  0  0  0  0  0  0  0  0  0  0  0
  1  4  1  0  0  0
  2  4  2  0  0  0
  3  4  1  0  0  0
M  CHG 1   1  -1
M  END
> <minimizedAffinity>
-2.35427

$$$$
175


  4  3  0  0  0  0  0  0  0  0999 V2000
  -37.9806   65.0856   30.6218 O   0  0  0  0  0  0  0  0  0  0  0  0
  -36.8556   64.2346   32.4232 O   0  0  0  0  0  0  0  0  0  0  0  0
  -38.9810   63.3842   31.9031 C   0  0  0  0  0  0  0  0  0  0  0  0
  -37.8259   64.3289   31.6200 C   0  0  0  0  0  0  0  0  0  0  0  0
  1  4  1  0  0  0
  2  4  2  0  0  0
  3  4  1  0  0  0
M  CHG 1   1  -1
M  END
> <minimizedAffinity>
-2.34390

$$$$
175


  4  3  0  0  0  0  0  0  0  0999 V2000
  -40.7608   59.9911   34.9276 O   0  0  0  0  0  0  0  0  0  0  0  0
  -42.6975   59.8924   36.1419 O   0  0  0  0  0  0  0  0  0  0  0  0
  -42.8015   59.6376   33.8105 C   0  0  0  0  0  0  0  0  0  0  0  0
  -42.0065   59.8628   35.0849 C   0  0  0  0  0  0  0  0  0  0  0  0
  1  4  1  0  0  0
  2  4  2  0  0  0
  3  4  1  0  0  0
M  CHG 1   1  -1
M  END
> <minimizedAffinity>
-2.33785

$$$$
175


  4  3  0  0  0  0  0  0  0  0999 V2000
  -42.0879   60.0052   36.0763 O   0  0  0  0  0  0  0  0  0  0  0  0
  -39.8757   60.5728   35.9380 O   0  0  0  0  0  0  0  0  0  0  0  0
  -41.1268   60.3789   33.9611 C   0  0  0  0  0  0  0  0  0  0  0  0
  -41.0215   60.3118   35.4747 C   0  0  0  0  0  0  0  0  0  0  0  0
  1  4  1  0  0  0
  2  4  2  0  0  0
  3  4  1  0  0  0
M  CHG 1   1  -1
M  END
> <minimizedAffinity>
-2.33208

$$$$
175


  4  3  0  0  0  0  0  0  0  0999 V2000
  -36.8544   70.4543   31.7684 O   0  0  0  0  0  0  0  0  0  0  0  0
  -34.8612   70.5207   30.6469 O   0  0  0  0  0  0  0  0  0  0  0  0
  -36.7628   69.7013   29.5408 C   0  0  0  0  0  0  0  0  0  0  0  0
  -36.0951   70.2828   30.7748 C   0  0  0  0  0  0  0  0  0  0  0  0
  1  4  1  0  0  0
  2  4  2  0  0  0
  3  4  1  0  0  0
M  CHG 1   1  -1
M  END
> <minimizedAffinity>
-2.32140

$$$$
175


  4  3  0  0  0  0  0  0  0  0999 V2000
  -39.5383   60.6180   35.7586 O   0  0  0  0  0  0  0  0  0  0  0  0
  -38.0714   62.2264   35.0542 O   0  0  0  0  0  0  0  0  0  0  0  0
  -39.8393   61.6011   33.6419 C   0  0  0  0  0  0  0  0  0  0  0  0
  -39.0754   61.4672   34.9477 C   0  0  0  0  0  0  0  0  0  0  0  0
  1  4  1  0  0  0
  2  4  2  0  0  0
  3  4  1  0  0  0
M  CHG 1   1  -1
M  END
> <minimizedAffinity>
-2.31839

$$$$
175


  4  3  0  0  0  0  0  0  0  0999 V2000
  -38.0747   62.2206   34.9799 O   0  0  0  0  0  0  0  0  0  0  0  0
  -39.5076   60.5930   35.7098 O   0  0  0  0  0  0  0  0  0  0  0  0
  -39.9368   61.6511   33.6586 C   0  0  0  0  0  0  0  0  0  0  0  0
  -39.0881   61.4719   34.9054 C   0  0  0  0  0  0  0  0  0  0  0  0
  1  4  1  0  0  0
  2  4  2  0  0  0
  3  4  1  0  0  0
M  CHG 1   1  -1
M  END
> <minimizedAffinity>
-2.30999

$$$$
175


  4  3  0  0  0  0  0  0  0  0999 V2000
  -37.3787   63.7170   32.8089 O   0  0  0  0  0  0  0  0  0  0  0  0
  -37.6207   62.3325   31.0035 O   0  0  0  0  0  0  0  0  0  0  0  0
  -39.4379   63.6601   31.6714 C   0  0  0  0  0  0  0  0  0  0  0  0
  -38.0040   63.1913   31.8468 C   0  0  0  0  0  0  0  0  0  0  0  0
  1  4  1  0  0  0
  2  4  2  0  0  0
  3  4  1  0  0  0
M  CHG 1   1  -1
M  END
> <minimizedAffinity>
-2.29857

$$$$
175


  4  3  0  0  0  0  0  0  0  0999 V2000
  -37.3496   62.1312   34.2245 O   0  0  0  0  0  0  0  0  0  0  0  0
  -39.1483   62.4733   32.8524 O   0  0  0  0  0  0  0  0  0  0  0  0
  -38.4812   60.2732   33.3274 C   0  0  0  0  0  0  0  0  0  0  0  0
  -38.3077   61.7738   33.4847 C   0  0  0  0  0  0  0  0  0  0  0  0
  1  4  1  0  0  0
  2  4  2  0  0  0
  3  4  1  0  0  0
M  CHG 1   1  -1
M  END
> <minimizedAffinity>
-2.27938

$$$$
175


  4  3  0  0  0  0  0  0  0  0999 V2000
  -39.8255   71.6403   28.9749 O   0  0  0  0  0  0  0  0  0  0  0  0
  -41.4474   70.2472   28.1602 O   0  0  0  0  0  0  0  0  0  0  0  0
  -39.6889   69.3334   29.4187 C   0  0  0  0  0  0  0  0  0  0  0  0
  -40.3883   70.5258   28.7897 C   0  0  0  0  0  0  0  0  0  0  0  0
  1  4  1  0  0  0
  2  4  2  0  0  0
  3  4  1  0  0  0
M  CHG 1   1  -1
M  END
> <minimizedAffinity>
-2.27225

$$$$
175


  4  3  0  0  0  0  0  0  0  0999 V2000
  -38.0719   60.5058   32.7810 O   0  0  0  0  0  0  0  0  0  0  0  0
  -37.1791   61.9741   34.2916 O   0  0  0  0  0  0  0  0  0  0  0  0
  -39.1270   60.7957   34.8643 C   0  0  0  0  0  0  0  0  0  0  0  0
  -38.0171   61.1231   33.8805 C   0  0  0  0  0  0  0  0  0  0  0  0
  1  4  1  0  0  0
  2  4  2  0  0  0
  3  4  1  0  0  0
M  CHG 1   1  -1
M  END
> <minimizedAffinity>
-2.26356

$$$$
175


  4  3  0  0  0  0  0  0  0  0999 V2000
  -41.6497   59.9792   35.6761 O   0  0  0  0  0  0  0  0  0  0  0  0
  -40.9426   60.9758   33.7417 O   0  0  0  0  0  0  0  0  0  0  0  0
  -42.8104   59.5553   33.6734 C   0  0  0  0  0  0  0  0  0  0  0  0
  -41.6908   60.2365   34.4411 C   0  0  0  0  0  0  0  0  0  0  0  0
  1  4  1  0  0  0
  2  4  2  0  0  0
  3  4  1  0  0  0
M  CHG 1   1  -1
M  END
> <minimizedAffinity>
-2.19676

$$$$
175


  4  3  0  0  0  0  0  0  0  0999 V2000
  -38.1934   62.9338   33.6651 O   0  0  0  0  0  0  0  0  0  0  0  0
  -37.2712   64.5123   32.2894 O   0  0  0  0  0  0  0  0  0  0  0  0
  -39.3740   63.6198   31.7486 C   0  0  0  0  0  0  0  0  0  0  0  0
  -38.1603   63.6947   32.6586 C   0  0  0  0  0  0  0  0  0  0  0  0
  1  4  1  0  0  0
  2  4  2  0  0  0
  3  4  1  0  0  0
M  CHG 1   1  -1
M  END
> <minimizedAffinity>
-2.17925

$$$$
175


  4  3  0  0  0  0  0  0  0  0999 V2000
  -43.3822   59.6592   33.3956 O   0  0  0  0  0  0  0  0  0  0  0  0
  -44.6307   60.5188   35.1095 O   0  0  0  0  0  0  0  0  0  0  0  0
  -42.3636   60.0372   35.4830 C   0  0  0  0  0  0  0  0  0  0  0  0
  -43.5778   60.0746   34.5713 C   0  0  0  0  0  0  0  0  0  0  0  0
  1  4  1  0  0  0
  2  4  2  0  0  0
  3  4  1  0  0  0
M  CHG 1   1  -1
M  END
> <minimizedAffinity>
-2.16888

$$$$
175


  4  3  0  0  0  0  0  0  0  0999 V2000
  -38.1666   65.2342   30.5846 O   0  0  0  0  0  0  0  0  0  0  0  0
  -37.9733   66.8296   28.9560 O   0  0  0  0  0  0  0  0  0  0  0  0
  -39.5711   67.1211   30.6511 C   0  0  0  0  0  0  0  0  0  0  0  0
  -38.4609   66.3139   30.0009 C   0  0  0  0  0  0  0  0  0  0  0  0
  1  4  1  0  0  0
  2  4  2  0  0  0
  3  4  1  0  0  0
M  CHG 1   1  -1
M  END
> <minimizedAffinity>
-2.16634

$$$$
175


  4  3  0  0  0  0  0  0  0  0999 V2000
  -41.3319   60.7812   33.7591 O   0  0  0  0  0  0  0  0  0  0  0  0
  -43.1155   59.4013   33.3718 O   0  0  0  0  0  0  0  0  0  0  0  0
  -42.5783   59.9733   35.5843 C   0  0  0  0  0  0  0  0  0  0  0  0
  -42.3143   60.0617   34.0912 C   0  0  0  0  0  0  0  0  0  0  0  0
  1  4  1  0  0  0
  2  4  2  0  0  0
  3  4  1  0  0  0
M  CHG 1   1  -1
M  END
> <minimizedAffinity>
-2.15045

$$$$
175


  4  3  0  0  0  0  0  0  0  0999 V2000
  -39.7839   60.5451   35.8768 O   0  0  0  0  0  0  0  0  0  0  0  0
  -40.7810   60.2698   33.8360 O   0  0  0  0  0  0  0  0  0  0  0  0
  -42.1076   60.1895   35.7711 C   0  0  0  0  0  0  0  0  0  0  0  0
  -40.7566   60.3509   35.0963 C   0  0  0  0  0  0  0  0  0  0  0  0
  1  4  1  0  0  0
  2  4  2  0  0  0
  3  4  1  0  0  0
M  CHG 1   1  -1
M  END
> <minimizedAffinity>
-2.14414

$$$$
175


  4  3  0  0  0  0  0  0  0  0999 V2000
  -34.6284   70.6672   30.2268 O   0  0  0  0  0  0  0  0  0  0  0  0
  -32.3605   70.7046   30.5273 O   0  0  0  0  0  0  0  0  0  0  0  0
  -33.5637   72.7138   30.6909 C   0  0  0  0  0  0  0  0  0  0  0  0
  -33.5145   71.2137   30.4584 C   0  0  0  0  0  0  0  0  0  0  0  0
  1  4  1  0  0  0
  2  4  2  0  0  0
  3  4  1  0  0  0
M  CHG 1   1  -1
M  END
> <minimizedAffinity>
-2.12964

$$$$
175


  4  3  0  0  0  0  0  0  0  0999 V2000
  -37.1868   70.0366   28.2020 O   0  0  0  0  0  0  0  0  0  0  0  0
  -36.2071   69.6496   30.2331 O   0  0  0  0  0  0  0  0  0  0  0  0
  -37.8009   68.1249   29.4292 C   0  0  0  0  0  0  0  0  0  0  0  0
  -36.9852   69.3963   29.2709 C   0  0  0  0  0  0  0  0  0  0  0  0
  1  4  1  0  0  0
  2  4  2  0  0  0
  3  4  1  0  0  0
M  CHG 1   1  -1
M  END
> <minimizedAffinity>
-2.12053

$$$$
175


  4  3  0  0  0  0  0  0  0  0999 V2000
  -38.7851   64.7743   32.8066 O   0  0  0  0  0  0  0  0  0  0  0  0
  -38.3786   63.1074   31.2929 O   0  0  0  0  0  0  0  0  0  0  0  0
  -40.5058   64.0986   31.3506 C   0  0  0  0  0  0  0  0  0  0  0  0
  -39.0830   63.9833   31.8692 C   0  0  0  0  0  0  0  0  0  0  0  0
  1  4  1  0  0  0
  2  4  2  0  0  0
  3  4  1  0  0  0
M  CHG 1   1  -1
M  END
> <minimizedAffinity>
-2.09864

$$$$
175


  4  3  0  0  0  0  0  0  0  0999 V2000
  -37.7272   70.6543   26.9971 O   0  0  0  0  0  0  0  0  0  0  0  0
  -38.5783   69.4650   28.7567 O   0  0  0  0  0  0  0  0  0  0  0  0
  -36.3249   70.1209   28.8099 C   0  0  0  0  0  0  0  0  0  0  0  0
  -37.6762   70.0765   28.1181 C   0  0  0  0  0  0  0  0  0  0  0  0
  1  4  1  0  0  0
  2  4  2  0  0  0
  3  4  1  0  0  0
M  CHG 1   1  -1
M  END
> <minimizedAffinity>
-2.06252

$$$$
175


  4  3  0  0  0  0  0  0  0  0999 V2000
  -33.6003   69.1267   40.9510 O   0  0  0  0  0  0  0  0  0  0  0  0
  -32.1612   68.3133   42.5328 O   0  0  0  0  0  0  0  0  0  0  0  0
  -34.2442   67.2696   42.2448 C   0  0  0  0  0  0  0  0  0  0  0  0
  -33.2369   68.3433   41.8714 C   0  0  0  0  0  0  0  0  0  0  0  0
  1  4  1  0  0  0
  2  4  2  0  0  0
  3  4  1  0  0  0
M  CHG 1   1  -1
M  END
> <minimizedAffinity>
-2.05712

$$$$
175


  4  3  0  0  0  0  0  0  0  0999 V2000
  -36.2792   70.4073   31.5000 O   0  0  0  0  0  0  0  0  0  0  0  0
  -35.9232   70.1068   29.2599 O   0  0  0  0  0  0  0  0  0  0  0  0
  -34.3578   71.3341   30.5066 C   0  0  0  0  0  0  0  0  0  0  0  0
  -35.6478   70.5377   30.4149 C   0  0  0  0  0  0  0  0  0  0  0  0
  1  4  1  0  0  0
  2  4  2  0  0  0
  3  4  1  0  0  0
M  CHG 1   1  -1
M  END
> <minimizedAffinity>
-2.05619

$$$$
175


  4  3  0  0  0  0  0  0  0  0999 V2000
  -40.0395   61.7420   33.4886 O   0  0  0  0  0  0  0  0  0  0  0  0
  -38.6106   59.9893   33.1401 O   0  0  0  0  0  0  0  0  0  0  0  0
  -40.0093   59.9600   35.0252 C   0  0  0  0  0  0  0  0  0  0  0  0
  -39.5044   60.6315   33.7600 C   0  0  0  0  0  0  0  0  0  0  0  0
  1  4  1  0  0  0
  2  4  2  0  0  0
  3  4  1  0  0  0
M  CHG 1   1  -1
M  END
> <minimizedAffinity>
-2.05386

$$$$
175


  4  3  0  0  0  0  0  0  0  0999 V2000
  -35.5677   70.2241   30.4122 O   0  0  0  0  0  0  0  0  0  0  0  0
  -37.2115   68.7136   29.9105 O   0  0  0  0  0  0  0  0  0  0  0  0
  -36.7843   70.4703   28.4130 C   0  0  0  0  0  0  0  0  0  0  0  0
  -36.4909   69.7309   29.7068 C   0  0  0  0  0  0  0  0  0  0  0  0
  1  4  1  0  0  0
  2  4  2  0  0  0
  3  4  1  0  0  0
M  CHG 1   1  -1
M  END
> <minimizedAffinity>
-2.03277

$$$$
175


  4  3  0  0  0  0  0  0  0  0999 V2000
  -34.3623   67.4072   41.2123 O   0  0  0  0  0  0  0  0  0  0  0  0
  -33.9001   68.8021   39.4587 O   0  0  0  0  0  0  0  0  0  0  0  0
  -35.4639   67.0771   39.1593 C   0  0  0  0  0  0  0  0  0  0  0  0
  -34.4784   67.8359   40.0309 C   0  0  0  0  0  0  0  0  0  0  0  0
  1  4  1  0  0  0
  2  4  2  0  0  0
  3  4  1  0  0  0
M  CHG 1   1  -1
M  END
> <minimizedAffinity>
-2.02397

$$$$
175


  4  3  0  0  0  0  0  0  0  0999 V2000
  -38.5898   65.2429   32.6605 O   0  0  0  0  0  0  0  0  0  0  0  0
  -37.7941   64.8743   30.5472 O   0  0  0  0  0  0  0  0  0  0  0  0
  -40.0587   65.4239   30.8310 C   0  0  0  0  0  0  0  0  0  0  0  0
  -38.6785   65.1539   31.4046 C   0  0  0  0  0  0  0  0  0  0  0  0
  1  4  1  0  0  0
  2  4  2  0  0  0
  3  4  1  0  0  0
M  CHG 1   1  -1
M  END
> <minimizedAffinity>
-2.01780

$$$$
175


  4  3  0  0  0  0  0  0  0  0999 V2000
  -39.2756   61.9129   33.2136 O   0  0  0  0  0  0  0  0  0  0  0  0
  -39.3284   59.9579   34.4011 O   0  0  0  0  0  0  0  0  0  0  0  0
  -37.2516   60.8421   33.7562 C   0  0  0  0  0  0  0  0  0  0  0  0
  -38.7683   60.9128   33.7929 C   0  0  0  0  0  0  0  0  0  0  0  0
  1  4  1  0  0  0
  2  4  2  0  0  0
  3  4  1  0  0  0
M  CHG 1   1  -1
M  END
> <minimizedAffinity>
-2.01162

$$$$
175


  4  3  0  0  0  0  0  0  0  0999 V2000
  -37.3829   62.1011   34.3182 O   0  0  0  0  0  0  0  0  0  0  0  0
  -38.4584   63.4041   32.7752 O   0  0  0  0  0  0  0  0  0  0  0  0
  -39.6113   61.6052   33.7477 C   0  0  0  0  0  0  0  0  0  0  0  0
  -38.3597   62.4527   33.6003 C   0  0  0  0  0  0  0  0  0  0  0  0
  1  4  1  0  0  0
  2  4  2  0  0  0
  3  4  1  0  0  0
M  CHG 1   1  -1
M  END
> <minimizedAffinity>
-1.97977

$$$$
175


  4  3  0  0  0  0  0  0  0  0999 V2000
  -41.0062   72.2412   29.4564 O   0  0  0  0  0  0  0  0  0  0  0  0
  -39.8070   70.3241   29.1079 O   0  0  0  0  0  0  0  0  0  0  0  0
  -38.6619   72.3002   29.6509 C   0  0  0  0  0  0  0  0  0  0  0  0
  -39.9536   71.5492   29.3783 C   0  0  0  0  0  0  0  0  0  0  0  0
  1  4  1  0  0  0
  2  4  2  0  0  0
  3  4  1  0  0  0
M  CHG 1   1  -1
M  END
> <minimizedAffinity>
-1.97235

$$$$
175


  4  3  0  0  0  0  0  0  0  0999 V2000
  -35.2698   70.8220   28.3224 O   0  0  0  0  0  0  0  0  0  0  0  0
  -33.2429   70.7537   29.3816 O   0  0  0  0  0  0  0  0  0  0  0  0
  -33.3006   71.0311   27.0512 C   0  0  0  0  0  0  0  0  0  0  0  0
  -34.0094   70.8511   28.3824 C   0  0  0  0  0  0  0  0  0  0  0  0
  1  4  1  0  0  0
  2  4  2  0  0  0
  3  4  1  0  0  0
M  CHG 1   1  -1
M  END
> <minimizedAffinity>
-1.95988

$$$$
175


  4  3  0  0  0  0  0  0  0  0999 V2000
  -38.8208   65.5338   30.1996 O   0  0  0  0  0  0  0  0  0  0  0  0
  -40.9212   65.1390   31.0167 O   0  0  0  0  0  0  0  0  0  0  0  0
  -40.1635   67.3545   30.8476 C   0  0  0  0  0  0  0  0  0  0  0  0
  -39.9452   65.8620   30.6699 C   0  0  0  0  0  0  0  0  0  0  0  0
  1  4  1  0  0  0
  2  4  2  0  0  0
  3  4  1  0  0  0
M  CHG 1   1  -1
M  END
> <minimizedAffinity>
-1.95982

$$$$
175


  4  3  0  0  0  0  0  0  0  0999 V2000
  -37.6367   71.9385   32.7732 O   0  0  0  0  0  0  0  0  0  0  0  0
  -36.2055   73.6136   32.1563 O   0  0  0  0  0  0  0  0  0  0  0  0
  -37.8318   72.8857   30.6279 C   0  0  0  0  0  0  0  0  0  0  0  0
  -37.1593   72.8030   31.9872 C   0  0  0  0  0  0  0  0  0  0  0  0
  1  4  1  0  0  0
  2  4  2  0  0  0
  3  4  1  0  0  0
M  CHG 1   1  -1
M  END
> <minimizedAffinity>
-1.91355

$$$$
175


  4  3  0  0  0  0  0  0  0  0999 V2000
  -32.3000   72.3406   28.9737 O   0  0  0  0  0  0  0  0  0  0  0  0
  -32.3139   70.7526   30.6208 O   0  0  0  0  0  0  0  0  0  0  0  0
  -31.2047   70.2909   28.6040 C   0  0  0  0  0  0  0  0  0  0  0  0
  -32.0201   71.2211   29.4852 C   0  0  0  0  0  0  0  0  0  0  0  0
  1  4  1  0  0  0
  2  4  2  0  0  0
  3  4  1  0  0  0
M  CHG 1   1  -1
M  END
> <minimizedAffinity>
-1.90721

$$$$
175


  4  3  0  0  0  0  0  0  0  0999 V2000
  -36.0067   70.8954   31.3314 O   0  0  0  0  0  0  0  0  0  0  0  0
  -35.5875   73.1206   31.6591 O   0  0  0  0  0  0  0  0  0  0  0  0
  -37.1663   72.4860   30.0418 C   0  0  0  0  0  0  0  0  0  0  0  0
  -36.1538   72.1304   31.1166 C   0  0  0  0  0  0  0  0  0  0  0  0
  1  4  1  0  0  0
  2  4  2  0  0  0
  3  4  1  0  0  0
M  CHG 1   1  -1
M  END
> <minimizedAffinity>
-1.90324

$$$$
175


  4  3  0  0  0  0  0  0  0  0999 V2000
  -34.0516   70.8447   28.0107 O   0  0  0  0  0  0  0  0  0  0  0  0
  -35.9667   70.1051   29.0209 O   0  0  0  0  0  0  0  0  0  0  0  0
  -36.0665   72.0034   27.6434 C   0  0  0  0  0  0  0  0  0  0  0  0
  -35.2826   70.8734   28.2879 C   0  0  0  0  0  0  0  0  0  0  0  0
  1  4  1  0  0  0
  2  4  2  0  0  0
  3  4  1  0  0  0
M  CHG 1   1  -1
M  END
> <minimizedAffinity>
-1.88059

$$$$
175


  4  3  0  0  0  0  0  0  0  0999 V2000
  -36.2232   67.3261   38.7665 O   0  0  0  0  0  0  0  0  0  0  0  0
  -35.8868   69.2788   39.9105 O   0  0  0  0  0  0  0  0  0  0  0  0
  -34.8203   67.3248   40.6557 C   0  0  0  0  0  0  0  0  0  0  0  0
  -35.7340   68.0462   39.6804 C   0  0  0  0  0  0  0  0  0  0  0  0
  1  4  1  0  0  0
  2  4  2  0  0  0
  3  4  1  0  0  0
M  CHG 1   1  -1
M  END
> <minimizedAffinity>
-1.87415

$$$$
175


  4  3  0  0  0  0  0  0  0  0999 V2000
  -41.6196   66.0162   32.7146 O   0  0  0  0  0  0  0  0  0  0  0  0
  -40.7597   66.9702   30.8211 O   0  0  0  0  0  0  0  0  0  0  0  0
  -40.9508   64.6330   30.9322 C   0  0  0  0  0  0  0  0  0  0  0  0
  -41.1281   66.0082   31.5521 C   0  0  0  0  0  0  0  0  0  0  0  0
  1  4  1  0  0  0
  2  4  2  0  0  0
  3  4  1  0  0  0
M  CHG 1   1  -1
M  END
> <minimizedAffinity>
-1.86191

$$$$
175


  4  3  0  0  0  0  0  0  0  0999 V2000
  -37.9269   67.5362   30.4165 O   0  0  0  0  0  0  0  0  0  0  0  0
  -37.0159   69.1440   29.0674 O   0  0  0  0  0  0  0  0  0  0  0  0
  -39.3209   69.2007   29.5087 C   0  0  0  0  0  0  0  0  0  0  0  0
  -37.9536   68.5626   29.6824 C   0  0  0  0  0  0  0  0  0  0  0  0
  1  4  1  0  0  0
  2  4  2  0  0  0
  3  4  1  0  0  0
M  CHG 1   1  -1
M  END
> <minimizedAffinity>
-1.86027

$$$$
175


  4  3  0  0  0  0  0  0  0  0999 V2000
  -34.5633   67.2742   40.7057 O   0  0  0  0  0  0  0  0  0  0  0  0
  -33.9098   69.3771   40.0846 O   0  0  0  0  0  0  0  0  0  0  0  0
  -33.0269   68.4446   42.0498 C   0  0  0  0  0  0  0  0  0  0  0  0
  -33.9224   68.3548   40.8264 C   0  0  0  0  0  0  0  0  0  0  0  0
  1  4  1  0  0  0
  2  4  2  0  0  0
  3  4  1  0  0  0
M  CHG 1   1  -1
M  END
> <minimizedAffinity>
-1.80552

$$$$
175


  4  3  0  0  0  0  0  0  0  0999 V2000
  -37.6826   72.4499   29.0398 O   0  0  0  0  0  0  0  0  0  0  0  0
  -36.7405   72.8274   26.9891 O   0  0  0  0  0  0  0  0  0  0  0  0
  -37.8993   70.8192   27.3571 C   0  0  0  0  0  0  0  0  0  0  0  0
  -37.3913   72.1647   27.8452 C   0  0  0  0  0  0  0  0  0  0  0  0
  1  4  1  0  0  0
  2  4  2  0  0  0
  3  4  1  0  0  0
M  CHG 1   1  -1
M  END
> <minimizedAffinity>
-1.80421

$$$$
175


  4  3  0  0  0  0  0  0  0  0999 V2000
  -39.0619   69.6585   31.0208 O   0  0  0  0  0  0  0  0  0  0  0  0
  -36.9525   70.0539   31.8139 O   0  0  0  0  0  0  0  0  0  0  0  0
  -37.2080   69.1205   29.6750 C   0  0  0  0  0  0  0  0  0  0  0  0
  -37.8011   69.6643   30.9632 C   0  0  0  0  0  0  0  0  0  0  0  0
  1  4  1  0  0  0
  2  4  2  0  0  0
  3  4  1  0  0  0
M  CHG 1   1  -1
M  END
> <minimizedAffinity>
-1.79113

$$$$
175


  4  3  0  0  0  0  0  0  0  0999 V2000
  -36.6878   72.3980   27.2456 O   0  0  0  0  0  0  0  0  0  0  0  0
  -34.8934   71.1155   27.8539 O   0  0  0  0  0  0  0  0  0  0  0  0
  -34.5545   73.3850   27.3582 C   0  0  0  0  0  0  0  0  0  0  0  0
  -35.4705   72.1816   27.4993 C   0  0  0  0  0  0  0  0  0  0  0  0
  1  4  1  0  0  0
  2  4  2  0  0  0
  3  4  1  0  0  0
M  CHG 1   1  -1
M  END
> <minimizedAffinity>
-1.78421

$$$$
175


  4  3  0  0  0  0  0  0  0  0999 V2000
  -30.9566   73.4152   39.2365 O   0  0  0  0  0  0  0  0  0  0  0  0
  -32.4786   72.0290   38.2380 O   0  0  0  0  0  0  0  0  0  0  0  0
  -33.0994   73.1887   40.1824 C   0  0  0  0  0  0  0  0  0  0  0  0
  -32.0758   72.8447   39.1143 C   0  0  0  0  0  0  0  0  0  0  0  0
  1  4  1  0  0  0
  2  4  2  0  0  0
  3  4  1  0  0  0
M  CHG 1   1  -1
M  END
> <minimizedAffinity>
-1.76594

$$$$
175


  4  3  0  0  0  0  0  0  0  0999 V2000
  -42.8167   61.8831   34.9186 O   0  0  0  0  0  0  0  0  0  0  0  0
  -42.8163   60.0050   36.2254 O   0  0  0  0  0  0  0  0  0  0  0  0
  -44.8496   60.7756   35.3406 C   0  0  0  0  0  0  0  0  0  0  0  0
  -43.3457   60.9019   35.5107 C   0  0  0  0  0  0  0  0  0  0  0  0
  1  4  1  0  0  0
  2  4  2  0  0  0
  3  4  1  0  0  0
M  CHG 1   1  -1
M  END
> <minimizedAffinity>
-1.75363

$$$$
175


  4  3  0  0  0  0  0  0  0  0999 V2000
  -41.0744   60.9610   33.7499 O   0  0  0  0  0  0  0  0  0  0  0  0
  -42.3465   62.6573   34.6098 O   0  0  0  0  0  0  0  0  0  0  0  0
  -40.8775   63.1216   32.8385 C   0  0  0  0  0  0  0  0  0  0  0  0
  -41.4925   62.1492   33.8300 C   0  0  0  0  0  0  0  0  0  0  0  0
  1  4  1  0  0  0
  2  4  2  0  0  0
  3  4  1  0  0  0
M  CHG 1   1  -1
M  END
> <minimizedAffinity>
-1.73449

$$$$
175


  4  3  0  0  0  0  0  0  0  0999 V2000
  -33.2072   71.1134   39.3431 O   0  0  0  0  0  0  0  0  0  0  0  0
  -32.6359   73.3017   39.6894 O   0  0  0  0  0  0  0  0  0  0  0  0
  -32.7383   72.4863   37.4904 C   0  0  0  0  0  0  0  0  0  0  0  0
  -32.8743   72.2782   38.9887 C   0  0  0  0  0  0  0  0  0  0  0  0
  1  4  1  0  0  0
  2  4  2  0  0  0
  3  4  1  0  0  0
M  CHG 1   1  -1
M  END
> <minimizedAffinity>
-1.71926

$$$$
175


  4  3  0  0  0  0  0  0  0  0999 V2000
  -32.6547   73.2940   39.6868 O   0  0  0  0  0  0  0  0  0  0  0  0
  -32.5754   72.0194   37.7884 O   0  0  0  0  0  0  0  0  0  0  0  0
  -33.6989   71.1852   39.6733 C   0  0  0  0  0  0  0  0  0  0  0  0
  -32.8971   72.2748   38.9829 C   0  0  0  0  0  0  0  0  0  0  0  0
  1  4  1  0  0  0
  2  4  2  0  0  0
  3  4  1  0  0  0
M  CHG 1   1  -1
M  END
> <minimizedAffinity>
-1.70796

$$$$
175


  4  3  0  0  0  0  0  0  0  0999 V2000
  -38.1236   71.8335   28.4329 O   0  0  0  0  0  0  0  0  0  0  0  0
  -37.7196   69.5845   28.3148 O   0  0  0  0  0  0  0  0  0  0  0  0
  -39.9409   70.3440   28.3055 C   0  0  0  0  0  0  0  0  0  0  0  0
  -38.4475   70.6160   28.3563 C   0  0  0  0  0  0  0  0  0  0  0  0
  1  4  1  0  0  0
  2  4  2  0  0  0
  3  4  1  0  0  0
M  CHG 1   1  -1
M  END
> <minimizedAffinity>
-1.70433

$$$$
175


  4  3  0  0  0  0  0  0  0  0999 V2000
  -36.5191   71.6781   29.4448 O   0  0  0  0  0  0  0  0  0  0  0  0
  -36.0136   70.5170   31.3504 O   0  0  0  0  0  0  0  0  0  0  0  0
  -36.1545   72.8583   31.4477 C   0  0  0  0  0  0  0  0  0  0  0  0
  -36.2376   71.5569   30.6691 C   0  0  0  0  0  0  0  0  0  0  0  0
  1  4  1  0  0  0
  2  4  2  0  0  0
  3  4  1  0  0  0
M  CHG 1   1  -1
M  END
> <minimizedAffinity>
-1.69722

$$$$
175


  4  3  0  0  0  0  0  0  0  0999 V2000
  -39.7141   71.2285   30.2474 O   0  0  0  0  0  0  0  0  0  0  0  0
  -38.3718   69.9362   28.9195 O   0  0  0  0  0  0  0  0  0  0  0  0
  -40.6319   70.1980   28.3413 C   0  0  0  0  0  0  0  0  0  0  0  0
  -39.4577   70.4834   29.2614 C   0  0  0  0  0  0  0  0  0  0  0  0
  1  4  1  0  0  0
  2  4  2  0  0  0
  3  4  1  0  0  0
M  CHG 1   1  -1
M  END
> <minimizedAffinity>
-1.65448

$$$$
175


  4  3  0  0  0  0  0  0  0  0999 V2000
  -38.3210   73.0792   30.7344 O   0  0  0  0  0  0  0  0  0  0  0  0
  -37.6798   72.0108   32.6533 O   0  0  0  0  0  0  0  0  0  0  0  0
  -36.0393   73.0132   31.3061 C   0  0  0  0  0  0  0  0  0  0  0  0
  -37.4906   72.6677   31.5912 C   0  0  0  0  0  0  0  0  0  0  0  0
  1  4  1  0  0  0
  2  4  2  0  0  0
  3  4  1  0  0  0
M  CHG 1   1  -1
M  END
> <minimizedAffinity>
-1.63829

$$$$
175


  4  3  0  0  0  0  0  0  0  0999 V2000
  -37.0188   69.0172   29.8796 O   0  0  0  0  0  0  0  0  0  0  0  0
  -39.2308   68.4341   29.9248 O   0  0  0  0  0  0  0  0  0  0  0  0
  -38.1788   69.0646   31.9265 C   0  0  0  0  0  0  0  0  0  0  0  0
  -38.1369   68.8143   30.4290 C   0  0  0  0  0  0  0  0  0  0  0  0
  1  4  1  0  0  0
  2  4  2  0  0  0
  3  4  1  0  0  0
M  CHG 1   1  -1
M  END
> <minimizedAffinity>
-1.61656

$$$$
175


  4  3  0  0  0  0  0  0  0  0999 V2000
  -34.5734   73.1743   29.5817 O   0  0  0  0  0  0  0  0  0  0  0  0
  -35.3836   71.5748   28.1605 O   0  0  0  0  0  0  0  0  0  0  0  0
  -34.4597   73.5356   27.2592 C   0  0  0  0  0  0  0  0  0  0  0  0
  -34.8429   72.6782   28.4528 C   0  0  0  0  0  0  0  0  0  0  0  0
  1  4  1  0  0  0
  2  4  2  0  0  0
  3  4  1  0  0  0
M  CHG 1   1  -1
M  END
> <minimizedAffinity>
-1.59198

$$$$
175


  4  3  0  0  0  0  0  0  0  0999 V2000
  -37.3120   69.8089   32.0564 O   0  0  0  0  0  0  0  0  0  0  0  0
  -39.3746   70.4994   32.7664 O   0  0  0  0  0  0  0  0  0  0  0  0
  -39.2342   68.9913   30.9728 C   0  0  0  0  0  0  0  0  0  0  0  0
  -38.5733   69.8510   32.0363 C   0  0  0  0  0  0  0  0  0  0  0  0
  1  4  1  0  0  0
  2  4  2  0  0  0
  3  4  1  0  0  0
M  CHG 1   1  -1
M  END
> <minimizedAffinity>
-1.59135

$$$$
175


  4  3  0  0  0  0  0  0  0  0999 V2000
  -41.1230   66.4543   32.6754 O   0  0  0  0  0  0  0  0  0  0  0  0
  -40.2299   67.2130   34.6405 O   0  0  0  0  0  0  0  0  0  0  0  0
  -39.2475   67.8741   32.6134 C   0  0  0  0  0  0  0  0  0  0  0  0
  -40.3053   67.1037   33.3843 C   0  0  0  0  0  0  0  0  0  0  0  0
  1  4  1  0  0  0
  2  4  2  0  0  0
  3  4  1  0  0  0
M  CHG 1   1  -1
M  END
> <minimizedAffinity>
-1.54332

$$$$
175


  4  3  0  0  0  0  0  0  0  0999 V2000
  -34.3886   71.3277   39.5201 O   0  0  0  0  0  0  0  0  0  0  0  0
  -33.8776   69.0977   39.4915 O   0  0  0  0  0  0  0  0  0  0  0  0
  -33.5101   70.3244   41.4590 C   0  0  0  0  0  0  0  0  0  0  0  0
  -33.9713   70.2438   40.0141 C   0  0  0  0  0  0  0  0  0  0  0  0
  1  4  1  0  0  0
  2  4  2  0  0  0
  3  4  1  0  0  0
M  CHG 1   1  -1
M  END
> <minimizedAffinity>
-1.51961

$$$$
175


  4  3  0  0  0  0  0  0  0  0999 V2000
  -38.5708   72.7970   30.5498 O   0  0  0  0  0  0  0  0  0  0  0  0
  -36.4418   72.5667   29.7438 O   0  0  0  0  0  0  0  0  0  0  0  0
  -36.7488   73.2285   31.9752 C   0  0  0  0  0  0  0  0  0  0  0  0
  -37.3110   72.8244   30.6234 C   0  0  0  0  0  0  0  0  0  0  0  0
  1  4  1  0  0  0
  2  4  2  0  0  0
  3  4  1  0  0  0
M  CHG 1   1  -1
M  END
> <minimizedAffinity>
-1.51150

$$$$
175


  4  3  0  0  0  0  0  0  0  0999 V2000
  -41.2756   62.5771   33.2132 O   0  0  0  0  0  0  0  0  0  0  0  0
  -39.5018   63.6213   34.2123 O   0  0  0  0  0  0  0  0  0  0  0  0
  -41.6644   64.4642   34.5643 C   0  0  0  0  0  0  0  0  0  0  0  0
  -40.7223   63.4536   33.9334 C   0  0  0  0  0  0  0  0  0  0  0  0
  1  4  1  0  0  0
  2  4  2  0  0  0
  3  4  1  0  0  0
M  CHG 1   1  -1
M  END
> <minimizedAffinity>
-1.49932

$$$$
175


  4  3  0  0  0  0  0  0  0  0999 V2000
  -38.5426   70.8171   29.6089 O   0  0  0  0  0  0  0  0  0  0  0  0
  -37.6975   72.4890   28.2953 O   0  0  0  0  0  0  0  0  0  0  0  0
  -37.9359   72.8630   30.6006 C   0  0  0  0  0  0  0  0  0  0  0  0
  -38.0730   71.9665   29.3823 C   0  0  0  0  0  0  0  0  0  0  0  0
  1  4  1  0  0  0
  2  4  2  0  0  0
  3  4  1  0  0  0
M  CHG 1   1  -1
M  END
> <minimizedAffinity>
-1.49102

$$$$
175


  4  3  0  0  0  0  0  0  0  0999 V2000
  -41.5606   65.9820   33.5647 O   0  0  0  0  0  0  0  0  0  0  0  0
  -40.4367   64.2328   32.6097 O   0  0  0  0  0  0  0  0  0  0  0  0
  -41.0918   66.0378   31.2593 C   0  0  0  0  0  0  0  0  0  0  0  0
  -41.0240   65.3510   32.6123 C   0  0  0  0  0  0  0  0  0  0  0  0
  1  4  1  0  0  0
  2  4  2  0  0  0
  3  4  1  0  0  0
M  CHG 1   1  -1
M  END
> <minimizedAffinity>
-1.48675

$$$$
175


  4  3  0  0  0  0  0  0  0  0999 V2000
  -33.7635   71.0639   41.1201 O   0  0  0  0  0  0  0  0  0  0  0  0
  -33.2677   71.1406   38.8877 O   0  0  0  0  0  0  0  0  0  0  0  0
  -35.4613   71.6052   39.5832 C   0  0  0  0  0  0  0  0  0  0  0  0
  -34.0225   71.2330   39.8964 C   0  0  0  0  0  0  0  0  0  0  0  0
  1  4  1  0  0  0
  2  4  2  0  0  0
  3  4  1  0  0  0
M  CHG 1   1  -1
M  END
> <minimizedAffinity>
-1.48403

$$$$
175


  4  3  0  0  0  0  0  0  0  0999 V2000
  -32.4715   73.6221   42.2907 O   0  0  0  0  0  0  0  0  0  0  0  0
  -33.0325   73.9044   40.0906 O   0  0  0  0  0  0  0  0  0  0  0  0
  -33.0917   71.7462   41.0124 C   0  0  0  0  0  0  0  0  0  0  0  0
  -32.8398   73.2380   41.1462 C   0  0  0  0  0  0  0  0  0  0  0  0
  1  4  1  0  0  0
  2  4  2  0  0  0
  3  4  1  0  0  0
M  CHG 1   1  -1
M  END
> <minimizedAffinity>
-1.41656

$$$$
175


  4  3  0  0  0  0  0  0  0  0999 V2000
  -40.0919   65.9671   34.0369 O   0  0  0  0  0  0  0  0  0  0  0  0
  -40.3548   66.6375   36.2086 O   0  0  0  0  0  0  0  0  0  0  0  0
  -41.8143   65.0214   35.3315 C   0  0  0  0  0  0  0  0  0  0  0  0
  -40.6373   65.9684   35.1751 C   0  0  0  0  0  0  0  0  0  0  0  0
  1  4  1  0  0  0
  2  4  2  0  0  0
  3  4  1  0  0  0
M  CHG 1   1  -1
M  END
> <minimizedAffinity>
-1.40482

$$$$
175


  4  3  0  0  0  0  0  0  0  0999 V2000
  -43.5726   62.0564   36.2427 O   0  0  0  0  0  0  0  0  0  0  0  0
  -45.1977   60.4474   36.3151 O   0  0  0  0  0  0  0  0  0  0  0  0
  -43.9690   60.7360   34.3357 C   0  0  0  0  0  0  0  0  0  0  0  0
  -44.2754   61.1191   35.7730 C   0  0  0  0  0  0  0  0  0  0  0  0
  1  4  1  0  0  0
  2  4  2  0  0  0
  3  4  1  0  0  0
M  CHG 1   1  -1
M  END
> <minimizedAffinity>
-1.38247

$$$$
175


  4  3  0  0  0  0  0  0  0  0999 V2000
  -40.9809   63.8573   37.6840 O   0  0  0  0  0  0  0  0  0  0  0  0
  -42.2938   62.8403   39.2579 O   0  0  0  0  0  0  0  0  0  0  0  0
  -40.6805   64.3968   39.9547 C   0  0  0  0  0  0  0  0  0  0  0  0
  -41.3871   63.6224   38.8557 C   0  0  0  0  0  0  0  0  0  0  0  0
  1  4  1  0  0  0
  2  4  2  0  0  0
  3  4  1  0  0  0
M  CHG 1   1  -1
M  END
> <minimizedAffinity>
-1.37009

$$$$
175


  4  3  0  0  0  0  0  0  0  0999 V2000
  -38.0926   72.8967   30.3886 O   0  0  0  0  0  0  0  0  0  0  0  0
  -40.1516   72.2763   29.6072 O   0  0  0  0  0  0  0  0  0  0  0  0
  -39.3466   71.3072   31.5881 C   0  0  0  0  0  0  0  0  0  0  0  0
  -39.1787   72.2540   30.4124 C   0  0  0  0  0  0  0  0  0  0  0  0
  1  4  1  0  0  0
  2  4  2  0  0  0
  3  4  1  0  0  0
M  CHG 1   1  -1
M  END
> <minimizedAffinity>
-1.36266

$$$$
175


  4  3  0  0  0  0  0  0  0  0999 V2000
  -41.7956   63.8904   34.4006 O   0  0  0  0  0  0  0  0  0  0  0  0
  -40.4284   65.4605   35.3496 O   0  0  0  0  0  0  0  0  0  0  0  0
  -41.7324   66.0602   33.4919 C   0  0  0  0  0  0  0  0  0  0  0  0
  -41.2746   65.0345   34.5142 C   0  0  0  0  0  0  0  0  0  0  0  0
  1  4  1  0  0  0
  2  4  2  0  0  0
  3  4  1  0  0  0
M  CHG 1   1  -1
M  END
> <minimizedAffinity>
-1.36226

$$$$
175


  4  3  0  0  0  0  0  0  0  0999 V2000
  -42.2667   63.1113   40.8505 O   0  0  0  0  0  0  0  0  0  0  0  0
  -40.4959   64.2653   39.9744 O   0  0  0  0  0  0  0  0  0  0  0  0
  -41.8240   62.9608   38.5442 C   0  0  0  0  0  0  0  0  0  0  0  0
  -41.4981   63.4979   39.9270 C   0  0  0  0  0  0  0  0  0  0  0  0
  1  4  1  0  0  0
  2  4  2  0  0  0
  3  4  1  0  0  0
M  CHG 1   1  -1
M  END
> <minimizedAffinity>
-1.29810

$$$$
175


  4  3  0  0  0  0  0  0  0  0999 V2000
  -42.2182   64.6969   38.3181 O   0  0  0  0  0  0  0  0  0  0  0  0
  -40.1129   64.7157   37.4224 O   0  0  0  0  0  0  0  0  0  0  0  0
  -40.3567   64.7348   39.7572 C   0  0  0  0  0  0  0  0  0  0  0  0
  -40.9569   64.7138   38.3621 C   0  0  0  0  0  0  0  0  0  0  0  0
  1  4  1  0  0  0
  2  4  2  0  0  0
  3  4  1  0  0  0
M  CHG 1   1  -1
M  END
> <minimizedAffinity>
-1.27788

$$$$
175


  4  3  0  0  0  0  0  0  0  0999 V2000
  -37.9935   68.3182   40.9056 O   0  0  0  0  0  0  0  0  0  0  0  0
  -35.7856   68.7529   41.3192 O   0  0  0  0  0  0  0  0  0  0  0  0
  -36.3532   67.3588   39.5177 C   0  0  0  0  0  0  0  0  0  0  0  0
  -36.7519   68.2288   40.6971 C   0  0  0  0  0  0  0  0  0  0  0  0
  1  4  1  0  0  0
  2  4  2  0  0  0
  3  4  1  0  0  0
M  CHG 1   1  -1
M  END
> <minimizedAffinity>
-1.25591

$$$$
175


  4  3  0  0  0  0  0  0  0  0999 V2000
  -40.3162   63.9474   36.2138 O   0  0  0  0  0  0  0  0  0  0  0  0
  -40.0846   64.0475   33.9397 O   0  0  0  0  0  0  0  0  0  0  0  0
  -40.6462   66.0013   35.1138 C   0  0  0  0  0  0  0  0  0  0  0  0
  -40.3167   64.5189   35.0884 C   0  0  0  0  0  0  0  0  0  0  0  0
  1  4  1  0  0  0
  2  4  2  0  0  0
  3  4  1  0  0  0
M  CHG 1   1  -1
M  END
> <minimizedAffinity>
-1.19347

$$$$
175


  4  3  0  0  0  0  0  0  0  0999 V2000
  -42.5104   64.3814   36.5540 O   0  0  0  0  0  0  0  0  0  0  0  0
  -40.3057   64.3234   37.1630 O   0  0  0  0  0  0  0  0  0  0  0  0
  -41.8296   62.9222   38.2700 C   0  0  0  0  0  0  0  0  0  0  0  0
  -41.5197   63.9803   37.2254 C   0  0  0  0  0  0  0  0  0  0  0  0
  1  4  1  0  0  0
  2  4  2  0  0  0
  3  4  1  0  0  0
M  CHG 1   1  -1
M  END
> <minimizedAffinity>
-1.15903

$$$$
175


  4  3  0  0  0  0  0  0  0  0999 V2000
  -32.3576   71.5152   42.1538 O   0  0  0  0  0  0  0  0  0  0  0  0
  -33.2615   70.7259   44.1019 O   0  0  0  0  0  0  0  0  0  0  0  0
  -30.9648   71.2057   44.0252 C   0  0  0  0  0  0  0  0  0  0  0  0
  -32.3286   71.1433   43.3596 C   0  0  0  0  0  0  0  0  0  0  0  0
  1  4  1  0  0  0
  2  4  2  0  0  0
  3  4  1  0  0  0
M  CHG 1   1  -1
M  END
> <minimizedAffinity>
-1.08181

$$$$
175


  4  3  0  0  0  0  0  0  0  0999 V2000
  -44.0208   70.3948   36.2533 O   0  0  0  0  0  0  0  0  0  0  0  0
  -43.7208   71.6227   34.3461 O   0  0  0  0  0  0  0  0  0  0  0  0
  -45.6407   70.2872   34.5498 C   0  0  0  0  0  0  0  0  0  0  0  0
  -44.3317   70.8198   35.1062 C   0  0  0  0  0  0  0  0  0  0  0  0
  1  4  1  0  0  0
  2  4  2  0  0  0
  3  4  1  0  0  0
M  CHG 1   1  -1
M  END
> <minimizedAffinity>
-1.07756

$$$$
175


  4  3  0  0  0  0  0  0  0  0999 V2000
  -42.2082   63.1561   40.9493 O   0  0  0  0  0  0  0  0  0  0  0  0
  -40.8262   64.0591   39.3650 O   0  0  0  0  0  0  0  0  0  0  0  0
  -41.7046   65.4532   41.0371 C   0  0  0  0  0  0  0  0  0  0  0  0
  -41.5673   64.0872   40.3875 C   0  0  0  0  0  0  0  0  0  0  0  0
  1  4  1  0  0  0
  2  4  2  0  0  0
  3  4  1  0  0  0
M  CHG 1   1  -1
M  END
> <minimizedAffinity>
-1.06037

$$$$
175


  4  3  0  0  0  0  0  0  0  0999 V2000
  -37.4808   72.0318   39.8518 O   0  0  0  0  0  0  0  0  0  0  0  0
  -35.3664   72.1552   38.9863 O   0  0  0  0  0  0  0  0  0  0  0  0
  -36.0586   70.1645   40.0202 C   0  0  0  0  0  0  0  0  0  0  0  0
  -36.3305   71.5914   39.5764 C   0  0  0  0  0  0  0  0  0  0  0  0
  1  4  1  0  0  0
  2  4  2  0  0  0
  3  4  1  0  0  0
M  CHG 1   1  -1
M  END
> <minimizedAffinity>
-1.03348

$$$$
175


  4  3  0  0  0  0  0  0  0  0999 V2000
  -44.4528   70.1838   36.6207 O   0  0  0  0  0  0  0  0  0  0  0  0
  -44.5494   68.3400   35.2694 O   0  0  0  0  0  0  0  0  0  0  0  0
  -45.6320   70.3084   34.5880 C   0  0  0  0  0  0  0  0  0  0  0  0
  -44.7954   69.5359   35.5931 C   0  0  0  0  0  0  0  0  0  0  0  0
  1  4  1  0  0  0
  2  4  2  0  0  0
  3  4  1  0  0  0
M  CHG 1   1  -1
M  END
> <minimizedAffinity>
-1.00730

$$$$
175


  4  3  0  0  0  0  0  0  0  0999 V2000
  -45.2767   70.4272   36.8997 O   0  0  0  0  0  0  0  0  0  0  0  0
  -47.1910   71.3262   36.0267 O   0  0  0  0  0  0  0  0  0  0  0  0
  -45.6396   70.3251   34.5769 C   0  0  0  0  0  0  0  0  0  0  0  0
  -46.0774   70.7324   35.9731 C   0  0  0  0  0  0  0  0  0  0  0  0
  1  4  1  0  0  0
  2  4  2  0  0  0
  3  4  1  0  0  0
M  CHG 1   1  -1
M  END
> <minimizedAffinity>
-0.99252

$$$$
175


  4  3  0  0  0  0  0  0  0  0999 V2000
  -43.5867   69.1198   35.4287 O   0  0  0  0  0  0  0  0  0  0  0  0
  -41.4542   69.0050   34.6075 O   0  0  0  0  0  0  0  0  0  0  0  0
  -42.1100   70.9121   35.8091 C   0  0  0  0  0  0  0  0  0  0  0  0
  -42.4156   69.5439   35.2246 C   0  0  0  0  0  0  0  0  0  0  0  0
  1  4  1  0  0  0
  2  4  2  0  0  0
  3  4  1  0  0  0
M  CHG 1   1  -1
M  END
> <minimizedAffinity>
-0.93144

$$$$
175


  4  3  0  0  0  0  0  0  0  0999 V2000
  -39.8545   67.4400   40.7104 O   0  0  0  0  0  0  0  0  0  0  0  0
  -39.8435   65.3483   39.7831 O   0  0  0  0  0  0  0  0  0  0  0  0
  -41.5098   66.8707   39.1376 C   0  0  0  0  0  0  0  0  0  0  0  0
  -40.2813   66.5200   39.9590 C   0  0  0  0  0  0  0  0  0  0  0  0
  1  4  1  0  0  0
  2  4  2  0  0  0
  3  4  1  0  0  0
M  CHG 1   1  -1
M  END
> <minimizedAffinity>
-0.91536

$$$$
175


  4  3  0  0  0  0  0  0  0  0999 V2000
  -41.6955   66.6998   38.9968 O   0  0  0  0  0  0  0  0  0  0  0  0
  -42.4970   65.0402   37.6409 O   0  0  0  0  0  0  0  0  0  0  0  0
  -40.4310   66.0302   37.1286 C   0  0  0  0  0  0  0  0  0  0  0  0
  -41.6622   65.9132   38.0102 C   0  0  0  0  0  0  0  0  0  0  0  0
  1  4  1  0  0  0
  2  4  2  0  0  0
  3  4  1  0  0  0
M  CHG 1   1  -1
M  END
> <minimizedAffinity>
-0.87142

$$$$
175


  4  3  0  0  0  0  0  0  0  0999 V2000
  -41.9496   70.9836   35.9986 O   0  0  0  0  0  0  0  0  0  0  0  0
  -41.7648   72.0997   34.0099 O   0  0  0  0  0  0  0  0  0  0  0  0
  -43.8688   71.2972   34.6735 C   0  0  0  0  0  0  0  0  0  0  0  0
  -42.3809   71.4769   34.9199 C   0  0  0  0  0  0  0  0  0  0  0  0
  1  4  1  0  0  0
  2  4  2  0  0  0
  3  4  1  0  0  0
M  CHG 1   1  -1
M  END
> <minimizedAffinity>
-0.86157

$$$$
175


  4  3  0  0  0  0  0  0  0  0999 V2000
  -44.0761   64.0564   41.5217 O   0  0  0  0  0  0  0  0  0  0  0  0
  -42.3181   62.6650   41.9784 O   0  0  0  0  0  0  0  0  0  0  0  0
  -42.8498   64.3663   43.5060 C   0  0  0  0  0  0  0  0  0  0  0  0
  -43.1082   63.6237   42.2066 C   0  0  0  0  0  0  0  0  0  0  0  0
  1  4  1  0  0  0
  2  4  2  0  0  0
  3  4  1  0  0  0
M  CHG 1   1  -1
M  END
> <minimizedAffinity>
-0.73271

$$$$
