


  6  6  0  0  0  0  0  0  0  0999 V2000
  -41.4771   60.2460   33.8168 C   0  0  0  0  0  0  0  0  0  0  0  0
  -41.3653   61.5563   34.2813 C   0  0  0  0  0  0  0  0  0  0  0  0
  -42.4912   62.2101   34.7159 C   0  0  0  0  0  0  0  0  0  0  0  0
  -43.7253   61.5534   34.6853 C   0  0  0  0  0  0  0  0  0  0  0  0
  -43.8299   60.2625   34.2267 C   0  0  0  0  0  0  0  0  0  0  0  0
  -42.7050   59.5923   33.7862 C   0  0  0  0  0  0  0  0  0  0  0  0
  1  2  2  0  0  0
  2  3  1  0  0  0
  3  4  2  0  0  0
  4  5  1  0  0  0
  5  6  2  0  0  0
  6  1  1  0  0  0
M  END
> <minimizedAffinity>
-3.70793

$$$$



  6  6  0  0  0  0  0  0  0  0999 V2000
  -43.8338   60.2001   34.2660 C   0  0  0  0  0  0  0  0  0  0  0  0
  -43.8214   61.5025   34.7648 C   0  0  0  0  0  0  0  0  0  0  0  0
  -42.6402   62.2016   34.7797 C   0  0  0  0  0  0  0  0  0  0  0  0
  -41.4752   61.5981   34.2965 C   0  0  0  0  0  0  0  0  0  0  0  0
  -41.4930   60.3147   33.8061 C   0  0  0  0  0  0  0  0  0  0  0  0
  -42.6746   59.5992   33.7850 C   0  0  0  0  0  0  0  0  0  0  0  0
  1  2  2  0  0  0
  2  3  1  0  0  0
  3  4  2  0  0  0
  4  5  1  0  0  0
  5  6  2  0  0  0
  6  1  1  0  0  0
M  END
> <minimizedAffinity>
-3.70132

$$$$



  6  6  0  0  0  0  0  0  0  0999 V2000
  -42.6172   59.6362   33.8277 C   0  0  0  0  0  0  0  0  0  0  0  0
  -43.8052   60.2089   34.2817 C   0  0  0  0  0  0  0  0  0  0  0  0
  -43.7928   61.5050   34.7334 C   0  0  0  0  0  0  0  0  0  0  0  0
  -42.5943   62.2252   34.7304 C   0  0  0  0  0  0  0  0  0  0  0  0
  -41.4269   61.6562   34.2820 C   0  0  0  0  0  0  0  0  0  0  0  0
  -41.4245   60.3526   33.8245 C   0  0  0  0  0  0  0  0  0  0  0  0
  1  2  2  0  0  0
  2  3  1  0  0  0
  3  4  2  0  0  0
  4  5  1  0  0  0
  5  6  2  0  0  0
  6  1  1  0  0  0
M  END
> <minimizedAffinity>
-3.68603

$$$$



  6  6  0  0  0  0  0  0  0  0999 V2000
  -42.5421   62.2918   34.6724 C   0  0  0  0  0  0  0  0  0  0  0  0
  -41.4206   61.6403   34.1596 C   0  0  0  0  0  0  0  0  0  0  0  0
  -41.5206   60.3193   33.8006 C   0  0  0  0  0  0  0  0  0  0  0  0
  -42.7401   59.6529   33.9547 C   0  0  0  0  0  0  0  0  0  0  0  0
  -43.8419   60.2995   34.4604 C   0  0  0  0  0  0  0  0  0  0  0  0
  -43.7558   61.6290   34.8259 C   0  0  0  0  0  0  0  0  0  0  0  0
  1  2  2  0  0  0
  2  3  1  0  0  0
  3  4  2  0  0  0
  4  5  1  0  0  0
  5  6  2  0  0  0
  6  1  1  0  0  0
M  END
> <minimizedAffinity>
-3.67567

$$$$



  6  6  0  0  0  0  0  0  0  0999 V2000
  -39.3290   62.6430   32.9788 C   0  0  0  0  0  0  0  0  0  0  0  0
  -40.2791   61.8319   33.5989 C   0  0  0  0  0  0  0  0  0  0  0  0
  -39.9726   60.5185   33.8544 C   0  0  0  0  0  0  0  0  0  0  0  0
  -38.7184   60.0193   33.4900 C   0  0  0  0  0  0  0  0  0  0  0  0
  -37.7861   60.8228   32.8794 C   0  0  0  0  0  0  0  0  0  0  0  0
  -38.0808   62.1466   32.6160 C   0  0  0  0  0  0  0  0  0  0  0  0
  1  2  2  0  0  0
  2  3  1  0  0  0
  3  4  2  0  0  0
  4  5  1  0  0  0
  5  6  2  0  0  0
  6  1  1  0  0  0
M  END
> <minimizedAffinity>
-3.67259

$$$$



  6  6  0  0  0  0  0  0  0  0999 V2000
  -39.3190   62.6465   32.9352 C   0  0  0  0  0  0  0  0  0  0  0  0
  -38.0772   62.1313   32.5643 C   0  0  0  0  0  0  0  0  0  0  0  0
  -37.7867   60.8194   32.8449 C   0  0  0  0  0  0  0  0  0  0  0  0
  -38.7371   60.0262   33.4950 C   0  0  0  0  0  0  0  0  0  0  0  0
  -39.9590   60.5389   33.8581 C   0  0  0  0  0  0  0  0  0  0  0  0
  -40.2650   61.8575   33.5820 C   0  0  0  0  0  0  0  0  0  0  0  0
  1  2  2  0  0  0
  2  3  1  0  0  0
  3  4  2  0  0  0
  4  5  1  0  0  0
  5  6  2  0  0  0
  6  1  1  0  0  0
M  END
> <minimizedAffinity>
-3.66764

$$$$



  6  6  0  0  0  0  0  0  0  0999 V2000
  -40.2752   61.9025   33.5856 C   0  0  0  0  0  0  0  0  0  0  0  0
  -39.3480   62.6993   32.9143 C   0  0  0  0  0  0  0  0  0  0  0  0
  -38.1477   62.1527   32.5342 C   0  0  0  0  0  0  0  0  0  0  0  0
  -37.8770   60.8121   32.8255 C   0  0  0  0  0  0  0  0  0  0  0  0
  -38.7941   60.0317   33.4869 C   0  0  0  0  0  0  0  0  0  0  0  0
  -40.0063   60.5686   33.8755 C   0  0  0  0  0  0  0  0  0  0  0  0
  1  2  2  0  0  0
  2  3  1  0  0  0
  3  4  2  0  0  0
  4  5  1  0  0  0
  5  6  2  0  0  0
  6  1  1  0  0  0
M  END
> <minimizedAffinity>
-3.66336

$$$$



  6  6  0  0  0  0  0  0  0  0999 V2000
  -42.6307   62.2528   34.8573 C   0  0  0  0  0  0  0  0  0  0  0  0
  -43.8166   61.5215   34.7933 C   0  0  0  0  0  0  0  0  0  0  0  0
  -43.7968   60.2618   34.2485 C   0  0  0  0  0  0  0  0  0  0  0  0
  -42.5930   59.7363   33.7692 C   0  0  0  0  0  0  0  0  0  0  0  0
  -41.4275   60.4610   33.8348 C   0  0  0  0  0  0  0  0  0  0  0  0
  -41.4326   61.7302   34.3805 C   0  0  0  0  0  0  0  0  0  0  0  0
  1  2  2  0  0  0
  2  3  1  0  0  0
  3  4  2  0  0  0
  4  5  1  0  0  0
  5  6  2  0  0  0
  6  1  1  0  0  0
M  END
> <minimizedAffinity>
-3.66283

$$$$



  6  6  0  0  0  0  0  0  0  0999 V2000
  -38.8042   60.0167   33.5995 C   0  0  0  0  0  0  0  0  0  0  0  0
  -37.8317   60.8055   32.9852 C   0  0  0  0  0  0  0  0  0  0  0  0
  -38.1241   62.1117   32.6812 C   0  0  0  0  0  0  0  0  0  0  0  0
  -39.3866   62.6262   32.9916 C   0  0  0  0  0  0  0  0  0  0  0  0
  -40.3410   61.8449   33.5969 C   0  0  0  0  0  0  0  0  0  0  0  0
  -40.0606   60.5284   33.9085 C   0  0  0  0  0  0  0  0  0  0  0  0
  1  2  2  0  0  0
  2  3  1  0  0  0
  3  4  2  0  0  0
  4  5  1  0  0  0
  5  6  2  0  0  0
  6  1  1  0  0  0
M  END
> <minimizedAffinity>
-3.65350

$$$$



  6  6  0  0  0  0  0  0  0  0999 V2000
  -45.6259   71.8095   27.4550 C   0  0  0  0  0  0  0  0  0  0  0  0
  -45.7762   72.7508   26.4369 C   0  0  0  0  0  0  0  0  0  0  0  0
  -47.0319   73.2172   26.1374 C   0  0  0  0  0  0  0  0  0  0  0  0
  -48.1337   72.7422   26.8555 C   0  0  0  0  0  0  0  0  0  0  0  0
  -47.9800   71.8149   27.8576 C   0  0  0  0  0  0  0  0  0  0  0  0
  -46.7220   71.3367   28.1698 C   0  0  0  0  0  0  0  0  0  0  0  0
  1  2  2  0  0  0
  2  3  1  0  0  0
  3  4  2  0  0  0
  4  5  1  0  0  0
  5  6  2  0  0  0
  6  1  1  0  0  0
M  END
> <minimizedAffinity>
-3.64629

$$$$



  6  6  0  0  0  0  0  0  0  0999 V2000
  -38.7721   60.0319   33.6094 C   0  0  0  0  0  0  0  0  0  0  0  0
  -40.0125   60.5818   33.9323 C   0  0  0  0  0  0  0  0  0  0  0  0
  -40.2674   61.8916   33.6107 C   0  0  0  0  0  0  0  0  0  0  0  0
  -39.2830   62.6482   32.9675 C   0  0  0  0  0  0  0  0  0  0  0  0
  -38.0628   62.1014   32.6516 C   0  0  0  0  0  0  0  0  0  0  0  0
  -37.7924   60.7844   32.9694 C   0  0  0  0  0  0  0  0  0  0  0  0
  1  2  2  0  0  0
  2  3  1  0  0  0
  3  4  2  0  0  0
  4  5  1  0  0  0
  5  6  2  0  0  0
  6  1  1  0  0  0
M  END
> <minimizedAffinity>
-3.63413

$$$$



  6  6  0  0  0  0  0  0  0  0999 V2000
  -41.9630   60.4564   36.0243 C   0  0  0  0  0  0  0  0  0  0  0  0
  -41.2858   60.1198   34.8524 C   0  0  0  0  0  0  0  0  0  0  0  0
  -41.9991   59.9581   33.6909 C   0  0  0  0  0  0  0  0  0  0  0  0
  -43.3863   60.1330   33.7031 C   0  0  0  0  0  0  0  0  0  0  0  0
  -44.0484   60.4647   34.8603 C   0  0  0  0  0  0  0  0  0  0  0  0
  -43.3434   60.6306   36.0368 C   0  0  0  0  0  0  0  0  0  0  0  0
  1  2  2  0  0  0
  2  3  1  0  0  0
  3  4  2  0  0  0
  4  5  1  0  0  0
  5  6  2  0  0  0
  6  1  1  0  0  0
M  END
> <minimizedAffinity>
-3.62018

$$$$



  6  6  0  0  0  0  0  0  0  0999 V2000
  -39.8886   68.2670   30.5647 C   0  0  0  0  0  0  0  0  0  0  0  0
  -40.0176   66.9023   30.8225 C   0  0  0  0  0  0  0  0  0  0  0  0
  -39.1198   66.0282   30.2623 C   0  0  0  0  0  0  0  0  0  0  0  0
  -38.0960   66.5194   29.4464 C   0  0  0  0  0  0  0  0  0  0  0  0
  -37.9734   67.8647   29.1958 C   0  0  0  0  0  0  0  0  0  0  0  0
  -38.8699   68.7560   29.7530 C   0  0  0  0  0  0  0  0  0  0  0  0
  1  2  2  0  0  0
  2  3  1  0  0  0
  3  4  2  0  0  0
  4  5  1  0  0  0
  5  6  2  0  0  0
  6  1  1  0  0  0
M  END
> <minimizedAffinity>
-3.61493

$$$$



  6  6  0  0  0  0  0  0  0  0999 V2000
  -39.7485   68.6234   30.3477 C   0  0  0  0  0  0  0  0  0  0  0  0
  -38.6492   68.7969   29.5070 C   0  0  0  0  0  0  0  0  0  0  0  0
  -37.8963   67.7040   29.1567 C   0  0  0  0  0  0  0  0  0  0  0  0
  -38.2433   66.4413   29.6468 C   0  0  0  0  0  0  0  0  0  0  0  0
  -39.3274   66.2760   30.4746 C   0  0  0  0  0  0  0  0  0  0  0  0
  -40.0942   67.3670   30.8356 C   0  0  0  0  0  0  0  0  0  0  0  0
  1  2  2  0  0  0
  2  3  1  0  0  0
  3  4  2  0  0  0
  4  5  1  0  0  0
  5  6  2  0  0  0
  6  1  1  0  0  0
M  END
> <minimizedAffinity>
-3.61123

$$$$



  6  6  0  0  0  0  0  0  0  0999 V2000
  -37.9678   67.8841   29.1630 C   0  0  0  0  0  0  0  0  0  0  0  0
  -38.8679   68.7980   29.7106 C   0  0  0  0  0  0  0  0  0  0  0  0
  -39.8707   68.3406   30.5287 C   0  0  0  0  0  0  0  0  0  0  0  0
  -39.9715   66.9722   30.7976 C   0  0  0  0  0  0  0  0  0  0  0  0
  -39.0820   66.0762   30.2556 C   0  0  0  0  0  0  0  0  0  0  0  0
  -38.0678   66.5223   29.4304 C   0  0  0  0  0  0  0  0  0  0  0  0
  1  2  2  0  0  0
  2  3  1  0  0  0
  3  4  2  0  0  0
  4  5  1  0  0  0
  5  6  2  0  0  0
  6  1  1  0  0  0
M  END
> <minimizedAffinity>
-3.60206

$$$$



  6  6  0  0  0  0  0  0  0  0999 V2000
  -38.8527   68.8001   29.7500 C   0  0  0  0  0  0  0  0  0  0  0  0
  -37.9467   67.9254   29.1505 C   0  0  0  0  0  0  0  0  0  0  0  0
  -38.0606   66.5784   29.3883 C   0  0  0  0  0  0  0  0  0  0  0  0
  -39.0786   66.1089   30.2239 C   0  0  0  0  0  0  0  0  0  0  0  0
  -39.9685   66.9750   30.8119 C   0  0  0  0  0  0  0  0  0  0  0  0
  -39.8659   68.3334   30.5815 C   0  0  0  0  0  0  0  0  0  0  0  0
  1  2  2  0  0  0
  2  3  1  0  0  0
  3  4  2  0  0  0
  4  5  1  0  0  0
  5  6  2  0  0  0
  6  1  1  0  0  0
M  END
> <minimizedAffinity>
-3.59720

$$$$



  6  6  0  0  0  0  0  0  0  0999 V2000
  -39.2339   66.2792   30.4313 C   0  0  0  0  0  0  0  0  0  0  0  0
  -40.0499   67.3460   30.8073 C   0  0  0  0  0  0  0  0  0  0  0  0
  -39.7704   68.6023   30.3301 C   0  0  0  0  0  0  0  0  0  0  0  0
  -38.6771   68.7894   29.4787 C   0  0  0  0  0  0  0  0  0  0  0  0
  -37.8765   67.7349   29.1114 C   0  0  0  0  0  0  0  0  0  0  0  0
  -38.1459   66.4650   29.5842 C   0  0  0  0  0  0  0  0  0  0  0  0
  1  2  2  0  0  0
  2  3  1  0  0  0
  3  4  2  0  0  0
  4  5  1  0  0  0
  5  6  2  0  0  0
  6  1  1  0  0  0
M  END
> <minimizedAffinity>
-3.59718

$$$$



  6  6  0  0  0  0  0  0  0  0999 V2000
  -36.5331   61.7115   31.1247 C   0  0  0  0  0  0  0  0  0  0  0  0
  -37.5593   61.2052   31.9222 C   0  0  0  0  0  0  0  0  0  0  0  0
  -38.3256   62.0748   32.6576 C   0  0  0  0  0  0  0  0  0  0  0  0
  -38.0648   63.4470   32.5945 C   0  0  0  0  0  0  0  0  0  0  0  0
  -37.0527   63.9404   31.8071 C   0  0  0  0  0  0  0  0  0  0  0  0
  -36.2734   63.0769   31.0616 C   0  0  0  0  0  0  0  0  0  0  0  0
  1  2  2  0  0  0
  2  3  1  0  0  0
  3  4  2  0  0  0
  4  5  1  0  0  0
  5  6  2  0  0  0
  6  1  1  0  0  0
M  END
> <minimizedAffinity>
-3.57145

$$$$



  6  6  0  0  0  0  0  0  0  0999 V2000
  -41.3875   60.3989   34.0544 C   0  0  0  0  0  0  0  0  0  0  0  0
  -40.0070   60.2350   33.9423 C   0  0  0  0  0  0  0  0  0  0  0  0
  -39.2384   61.2971   33.5356 C   0  0  0  0  0  0  0  0  0  0  0  0
  -39.8507   62.5195   33.2423 C   0  0  0  0  0  0  0  0  0  0  0  0
  -41.2112   62.6754   33.3546 C   0  0  0  0  0  0  0  0  0  0  0  0
  -41.9971   61.6151   33.7627 C   0  0  0  0  0  0  0  0  0  0  0  0
  1  2  2  0  0  0
  2  3  1  0  0  0
  3  4  2  0  0  0
  4  5  1  0  0  0
  5  6  2  0  0  0
  6  1  1  0  0  0
M  END
> <minimizedAffinity>
-3.49247

$$$$



  6  6  0  0  0  0  0  0  0  0999 V2000
  -39.1700   61.3784   33.5360 C   0  0  0  0  0  0  0  0  0  0  0  0
  -39.8697   60.2530   33.9708 C   0  0  0  0  0  0  0  0  0  0  0  0
  -41.2356   60.3193   34.0895 C   0  0  0  0  0  0  0  0  0  0  0  0
  -41.8985   61.5092   33.7735 C   0  0  0  0  0  0  0  0  0  0  0  0
  -41.2043   62.6149   33.3454 C   0  0  0  0  0  0  0  0  0  0  0  0
  -39.8293   62.5625   33.2214 C   0  0  0  0  0  0  0  0  0  0  0  0
  1  2  2  0  0  0
  2  3  1  0  0  0
  3  4  2  0  0  0
  4  5  1  0  0  0
  5  6  2  0  0  0
  6  1  1  0  0  0
M  END
> <minimizedAffinity>
-3.48470

$$$$



  6  6  0  0  0  0  0  0  0  0999 V2000
  -39.2696   61.3043   33.5711 C   0  0  0  0  0  0  0  0  0  0  0  0
  -39.8417   62.5349   33.2492 C   0  0  0  0  0  0  0  0  0  0  0  0
  -41.2039   62.6816   33.3337 C   0  0  0  0  0  0  0  0  0  0  0  0
  -41.9905   61.5991   33.7393 C   0  0  0  0  0  0  0  0  0  0  0  0
  -41.4217   60.3890   34.0554 C   0  0  0  0  0  0  0  0  0  0  0  0
  -40.0521   60.2270   33.9749 C   0  0  0  0  0  0  0  0  0  0  0  0
  1  2  2  0  0  0
  2  3  1  0  0  0
  3  4  2  0  0  0
  4  5  1  0  0  0
  5  6  2  0  0  0
  6  1  1  0  0  0
M  END
> <minimizedAffinity>
-3.48164

$$$$



  6  6  0  0  0  0  0  0  0  0999 V2000
  -39.7324   62.4184   33.3068 C   0  0  0  0  0  0  0  0  0  0  0  0
  -41.0797   62.7787   33.3155 C   0  0  0  0  0  0  0  0  0  0  0  0
  -42.0216   61.8368   33.6468 C   0  0  0  0  0  0  0  0  0  0  0  0
  -41.6152   60.5382   33.9686 C   0  0  0  0  0  0  0  0  0  0  0  0
  -40.2865   60.1886   33.9586 C   0  0  0  0  0  0  0  0  0  0  0  0
  -39.3276   61.1263   33.6270 C   0  0  0  0  0  0  0  0  0  0  0  0
  1  2  2  0  0  0
  2  3  1  0  0  0
  3  4  2  0  0  0
  4  5  1  0  0  0
  5  6  2  0  0  0
  6  1  1  0  0  0
M  END
> <minimizedAffinity>
-3.41836

$$$$



  6  6  0  0  0  0  0  0  0  0999 V2000
  -39.9007   69.8692   29.0606 C   0  0  0  0  0  0  0  0  0  0  0  0
  -39.1169   70.5624   28.1384 C   0  0  0  0  0  0  0  0  0  0  0  0
  -37.7958   70.2197   27.9923 C   0  0  0  0  0  0  0  0  0  0  0  0
  -37.2615   69.1859   28.7674 C   0  0  0  0  0  0  0  0  0  0  0  0
  -38.0382   68.5062   29.6744 C   0  0  0  0  0  0  0  0  0  0  0  0
  -39.3694   68.8404   29.8320 C   0  0  0  0  0  0  0  0  0  0  0  0
  1  2  2  0  0  0
  2  3  1  0  0  0
  3  4  2  0  0  0
  4  5  1  0  0  0
  5  6  2  0  0  0
  6  1  1  0  0  0
M  END
> <minimizedAffinity>
-3.34757

$$$$



  6  6  0  0  0  0  0  0  0  0999 V2000
  -37.8751   68.6390   29.6140 C   0  0  0  0  0  0  0  0  0  0  0  0
  -39.2373   68.8258   29.8477 C   0  0  0  0  0  0  0  0  0  0  0  0
  -39.9156   69.7757   29.1253 C   0  0  0  0  0  0  0  0  0  0  0  0
  -39.2316   70.5359   28.1718 C   0  0  0  0  0  0  0  0  0  0  0  0
  -37.8895   70.3477   27.9455 C   0  0  0  0  0  0  0  0  0  0  0  0
  -37.1941   69.3953   28.6652 C   0  0  0  0  0  0  0  0  0  0  0  0
  1  2  2  0  0  0
  2  3  1  0  0  0
  3  4  2  0  0  0
  4  5  1  0  0  0
  5  6  2  0  0  0
  6  1  1  0  0  0
M  END
> <minimizedAffinity>
-3.33728

$$$$



  6  6  0  0  0  0  0  0  0  0999 V2000
  -37.7796   70.3644   27.9741 C   0  0  0  0  0  0  0  0  0  0  0  0
  -37.1564   69.3477   28.6973 C   0  0  0  0  0  0  0  0  0  0  0  0
  -37.8985   68.6037   29.5804 C   0  0  0  0  0  0  0  0  0  0  0  0
  -39.2606   68.8772   29.7385 C   0  0  0  0  0  0  0  0  0  0  0  0
  -39.8696   69.8799   29.0233 C   0  0  0  0  0  0  0  0  0  0  0  0
  -39.1350   70.6368   28.1311 C   0  0  0  0  0  0  0  0  0  0  0  0
  1  2  2  0  0  0
  2  3  1  0  0  0
  3  4  2  0  0  0
  4  5  1  0  0  0
  5  6  2  0  0  0
  6  1  1  0  0  0
M  END
> <minimizedAffinity>
-3.32510

$$$$



  6  6  0  0  0  0  0  0  0  0999 V2000
  -35.6677   70.7468   28.8777 C   0  0  0  0  0  0  0  0  0  0  0  0
  -36.6049   69.7313   29.0667 C   0  0  0  0  0  0  0  0  0  0  0  0
  -37.7816   69.7675   28.3609 C   0  0  0  0  0  0  0  0  0  0  0  0
  -38.0187   70.8175   27.4684 C   0  0  0  0  0  0  0  0  0  0  0  0
  -37.0920   71.8153   27.2860 C   0  0  0  0  0  0  0  0  0  0  0  0
  -35.9034   71.7917   27.9897 C   0  0  0  0  0  0  0  0  0  0  0  0
  1  2  2  0  0  0
  2  3  1  0  0  0
  3  4  2  0  0  0
  4  5  1  0  0  0
  5  6  2  0  0  0
  6  1  1  0  0  0
M  END
> <minimizedAffinity>
-3.28914

$$$$



  6  6  0  0  0  0  0  0  0  0999 V2000
  -38.1518   70.7454   27.5735 C   0  0  0  0  0  0  0  0  0  0  0  0
  -37.9482   69.7171   28.4935 C   0  0  0  0  0  0  0  0  0  0  0  0
  -36.7342   69.6164   29.1260 C   0  0  0  0  0  0  0  0  0  0  0  0
  -35.7273   70.5428   28.8380 C   0  0  0  0  0  0  0  0  0  0  0  0
  -35.9332   71.5540   27.9309 C   0  0  0  0  0  0  0  0  0  0  0  0
  -37.1501   71.6674   27.2867 C   0  0  0  0  0  0  0  0  0  0  0  0
  1  2  2  0  0  0
  2  3  1  0  0  0
  3  4  2  0  0  0
  4  5  1  0  0  0
  5  6  2  0  0  0
  6  1  1  0  0  0
M  END
> <minimizedAffinity>
-3.28659

$$$$



  6  6  0  0  0  0  0  0  0  0999 V2000
  -35.6620   70.7585   28.9052 C   0  0  0  0  0  0  0  0  0  0  0  0
  -35.8832   71.8175   28.0250 C   0  0  0  0  0  0  0  0  0  0  0  0
  -37.0476   71.8516   27.2991 C   0  0  0  0  0  0  0  0  0  0  0  0
  -37.9877   70.8282   27.4544 C   0  0  0  0  0  0  0  0  0  0  0  0
  -37.7648   69.7873   28.3230 C   0  0  0  0  0  0  0  0  0  0  0  0
  -36.5972   69.7400   29.0600 C   0  0  0  0  0  0  0  0  0  0  0  0
  1  2  2  0  0  0
  2  3  1  0  0  0
  3  4  2  0  0  0
  4  5  1  0  0  0
  5  6  2  0  0  0
  6  1  1  0  0  0
M  END
> <minimizedAffinity>
-3.28490

$$$$



  6  6  0  0  0  0  0  0  0  0999 V2000
  -37.0863   71.8276   27.2892 C   0  0  0  0  0  0  0  0  0  0  0  0
  -35.8787   71.8169   27.9869 C   0  0  0  0  0  0  0  0  0  0  0  0
  -35.6174   70.7867   28.8556 C   0  0  0  0  0  0  0  0  0  0  0  0
  -36.5627   69.7704   29.0248 C   0  0  0  0  0  0  0  0  0  0  0  0
  -37.7508   69.7858   28.3349 C   0  0  0  0  0  0  0  0  0  0  0  0
  -38.0272   70.8165   27.4574 C   0  0  0  0  0  0  0  0  0  0  0  0
  1  2  2  0  0  0
  2  3  1  0  0  0
  3  4  2  0  0  0
  4  5  1  0  0  0
  5  6  2  0  0  0
  6  1  1  0  0  0
M  END
> <minimizedAffinity>
-3.28241

$$$$



  6  6  0  0  0  0  0  0  0  0999 V2000
  -39.7128   65.9040   30.5633 C   0  0  0  0  0  0  0  0  0  0  0  0
  -38.3627   65.7493   30.8772 C   0  0  0  0  0  0  0  0  0  0  0  0
  -37.9616   64.6373   31.5748 C   0  0  0  0  0  0  0  0  0  0  0  0
  -38.9097   63.6833   31.9567 C   0  0  0  0  0  0  0  0  0  0  0  0
  -40.2385   63.8406   31.6448 C   0  0  0  0  0  0  0  0  0  0  0  0
  -40.6566   64.9548   30.9431 C   0  0  0  0  0  0  0  0  0  0  0  0
  1  2  2  0  0  0
  2  3  1  0  0  0
  3  4  2  0  0  0
  4  5  1  0  0  0
  5  6  2  0  0  0
  6  1  1  0  0  0
M  END
> <minimizedAffinity>
-3.25370

$$$$



  6  6  0  0  0  0  0  0  0  0999 V2000
  -37.4138   71.4515   27.2609 C   0  0  0  0  0  0  0  0  0  0  0  0
  -38.3890   70.5632   27.7138 C   0  0  0  0  0  0  0  0  0  0  0  0
  -38.0618   69.6487   28.6838 C   0  0  0  0  0  0  0  0  0  0  0  0
  -36.7620   69.6242   29.1985 C   0  0  0  0  0  0  0  0  0  0  0  0
  -35.8052   70.5017   28.7488 C   0  0  0  0  0  0  0  0  0  0  0  0
  -36.1203   71.4274   27.7729 C   0  0  0  0  0  0  0  0  0  0  0  0
  1  2  2  0  0  0
  2  3  1  0  0  0
  3  4  2  0  0  0
  4  5  1  0  0  0
  5  6  2  0  0  0
  6  1  1  0  0  0
M  END
> <minimizedAffinity>
-3.25130

$$$$



  6  6  0  0  0  0  0  0  0  0999 V2000
  -41.3837   61.8583   33.6298 C   0  0  0  0  0  0  0  0  0  0  0  0
  -41.4812   60.5268   34.0334 C   0  0  0  0  0  0  0  0  0  0  0  0
  -40.4822   59.9871   34.8048 C   0  0  0  0  0  0  0  0  0  0  0  0
  -39.3892   60.7786   35.1707 C   0  0  0  0  0  0  0  0  0  0  0  0
  -39.2982   62.0897   34.7703 C   0  0  0  0  0  0  0  0  0  0  0  0
  -40.2962   62.6461   33.9937 C   0  0  0  0  0  0  0  0  0  0  0  0
  1  2  2  0  0  0
  2  3  1  0  0  0
  3  4  2  0  0  0
  4  5  1  0  0  0
  5  6  2  0  0  0
  6  1  1  0  0  0
M  END
> <minimizedAffinity>
-3.24318

$$$$



  6  6  0  0  0  0  0  0  0  0999 V2000
  -40.5855   65.0388   30.9170 C   0  0  0  0  0  0  0  0  0  0  0  0
  -40.2036   63.8793   31.5915 C   0  0  0  0  0  0  0  0  0  0  0  0
  -38.8817   63.6977   31.9136 C   0  0  0  0  0  0  0  0  0  0  0  0
  -37.9453   64.6745   31.5612 C   0  0  0  0  0  0  0  0  0  0  0  0
  -38.3270   65.8150   30.8968 C   0  0  0  0  0  0  0  0  0  0  0  0
  -39.6540   66.0110   30.5663 C   0  0  0  0  0  0  0  0  0  0  0  0
  1  2  2  0  0  0
  2  3  1  0  0  0
  3  4  2  0  0  0
  4  5  1  0  0  0
  5  6  2  0  0  0
  6  1  1  0  0  0
M  END
> <minimizedAffinity>
-3.24202

$$$$



  6  6  0  0  0  0  0  0  0  0999 V2000
  -38.0192   64.5281   31.6515 C   0  0  0  0  0  0  0  0  0  0  0  0
  -39.0374   63.6125   31.9166 C   0  0  0  0  0  0  0  0  0  0  0  0
  -40.3203   63.9081   31.5282 C   0  0  0  0  0  0  0  0  0  0  0  0
  -40.5825   65.1170   30.8763 C   0  0  0  0  0  0  0  0  0  0  0  0
  -39.5757   66.0154   30.6176 C   0  0  0  0  0  0  0  0  0  0  0  0
  -38.2798   65.7311   31.0028 C   0  0  0  0  0  0  0  0  0  0  0  0
  1  2  2  0  0  0
  2  3  1  0  0  0
  3  4  2  0  0  0
  4  5  1  0  0  0
  5  6  2  0  0  0
  6  1  1  0  0  0
M  END
> <minimizedAffinity>
-3.24148

$$$$



  6  6  0  0  0  0  0  0  0  0999 V2000
  -42.1485   61.3201   35.0716 C   0  0  0  0  0  0  0  0  0  0  0  0
  -41.6588   62.1687   34.0790 C   0  0  0  0  0  0  0  0  0  0  0  0
  -40.4351   61.9038   33.5166 C   0  0  0  0  0  0  0  0  0  0  0  0
  -39.7041   60.7923   33.9471 C   0  0  0  0  0  0  0  0  0  0  0  0
  -40.1912   59.9594   34.9252 C   0  0  0  0  0  0  0  0  0  0  0  0
  -41.4214   60.2139   35.5002 C   0  0  0  0  0  0  0  0  0  0  0  0
  1  2  2  0  0  0
  2  3  1  0  0  0
  3  4  2  0  0  0
  4  5  1  0  0  0
  5  6  2  0  0  0
  6  1  1  0  0  0
M  END
> <minimizedAffinity>
-3.23184

$$$$



  6  6  0  0  0  0  0  0  0  0999 V2000
  -35.8984   71.9132   28.3873 C   0  0  0  0  0  0  0  0  0  0  0  0
  -36.9198   72.0942   27.4549 C   0  0  0  0  0  0  0  0  0  0  0  0
  -37.8382   71.0918   27.2661 C   0  0  0  0  0  0  0  0  0  0  0  0
  -37.7340   69.9118   28.0090 C   0  0  0  0  0  0  0  0  0  0  0  0
  -36.7259   69.7387   28.9263 C   0  0  0  0  0  0  0  0  0  0  0  0
  -35.7945   70.7391   29.1267 C   0  0  0  0  0  0  0  0  0  0  0  0
  1  2  2  0  0  0
  2  3  1  0  0  0
  3  4  2  0  0  0
  4  5  1  0  0  0
  5  6  2  0  0  0
  6  1  1  0  0  0
M  END
> <minimizedAffinity>
-3.17570

$$$$



  6  6  0  0  0  0  0  0  0  0999 V2000
  -33.0208   73.3513   26.5568 C   0  0  0  0  0  0  0  0  0  0  0  0
  -34.2453   73.6391   27.1593 C   0  0  0  0  0  0  0  0  0  0  0  0
  -35.0075   72.6085   27.6504 C   0  0  0  0  0  0  0  0  0  0  0  0
  -34.5445   71.2939   27.5383 C   0  0  0  0  0  0  0  0  0  0  0  0
  -33.3374   71.0160   26.9440 C   0  0  0  0  0  0  0  0  0  0  0  0
  -32.5598   72.0433   26.4452 C   0  0  0  0  0  0  0  0  0  0  0  0
  1  2  2  0  0  0
  2  3  1  0  0  0
  3  4  2  0  0  0
  4  5  1  0  0  0
  5  6  2  0  0  0
  6  1  1  0  0  0
M  END
> <minimizedAffinity>
-3.17141

$$$$



  6  6  0  0  0  0  0  0  0  0999 V2000
  -33.6273   71.0778   27.3123 C   0  0  0  0  0  0  0  0  0  0  0  0
  -34.9271   71.3613   27.7312 C   0  0  0  0  0  0  0  0  0  0  0  0
  -35.3890   72.6514   27.6512 C   0  0  0  0  0  0  0  0  0  0  0  0
  -34.5517   73.6543   27.1530 C   0  0  0  0  0  0  0  0  0  0  0  0
  -33.2721   73.3695   26.7415 C   0  0  0  0  0  0  0  0  0  0  0  0
  -32.7939   72.0755   26.8164 C   0  0  0  0  0  0  0  0  0  0  0  0
  1  2  2  0  0  0
  2  3  1  0  0  0
  3  4  2  0  0  0
  4  5  1  0  0  0
  5  6  2  0  0  0
  6  1  1  0  0  0
M  END
> <minimizedAffinity>
-3.15955

$$$$



  6  6  0  0  0  0  0  0  0  0999 V2000
  -41.4562   66.0387   32.8824 C   0  0  0  0  0  0  0  0  0  0  0  0
  -41.1723   66.0372   31.5168 C   0  0  0  0  0  0  0  0  0  0  0  0
  -40.7135   64.8839   30.9306 C   0  0  0  0  0  0  0  0  0  0  0  0
  -40.5398   63.7359   31.7097 C   0  0  0  0  0  0  0  0  0  0  0  0
  -40.8211   63.7429   33.0545 C   0  0  0  0  0  0  0  0  0  0  0  0
  -41.2834   64.8965   33.6579 C   0  0  0  0  0  0  0  0  0  0  0  0
  1  2  2  0  0  0
  2  3  1  0  0  0
  3  4  2  0  0  0
  4  5  1  0  0  0
  5  6  2  0  0  0
  6  1  1  0  0  0
M  END
> <minimizedAffinity>
-3.14920

$$$$



  6  6  0  0  0  0  0  0  0  0999 V2000
  -41.2615   64.8740   33.6012 C   0  0  0  0  0  0  0  0  0  0  0  0
  -40.7468   63.7253   33.0004 C   0  0  0  0  0  0  0  0  0  0  0  0
  -40.4508   63.7469   31.6603 C   0  0  0  0  0  0  0  0  0  0  0  0
  -40.6697   64.9154   30.9242 C   0  0  0  0  0  0  0  0  0  0  0  0
  -41.1769   66.0442   31.5211 C   0  0  0  0  0  0  0  0  0  0  0  0
  -41.4794   66.0369   32.8691 C   0  0  0  0  0  0  0  0  0  0  0  0
  1  2  2  0  0  0
  2  3  1  0  0  0
  3  4  2  0  0  0
  4  5  1  0  0  0
  5  6  2  0  0  0
  6  1  1  0  0  0
M  END
> <minimizedAffinity>
-3.14772

$$$$



  6  6  0  0  0  0  0  0  0  0999 V2000
  -40.7451   63.7716   33.0291 C   0  0  0  0  0  0  0  0  0  0  0  0
  -41.2444   64.9150   33.6525 C   0  0  0  0  0  0  0  0  0  0  0  0
  -41.4701   66.0416   32.9016 C   0  0  0  0  0  0  0  0  0  0  0  0
  -41.1966   66.0230   31.5305 C   0  0  0  0  0  0  0  0  0  0  0  0
  -40.7050   64.8939   30.9213 C   0  0  0  0  0  0  0  0  0  0  0  0
  -40.4730   63.7527   31.6647 C   0  0  0  0  0  0  0  0  0  0  0  0
  1  2  2  0  0  0
  2  3  1  0  0  0
  3  4  2  0  0  0
  4  5  1  0  0  0
  5  6  2  0  0  0
  6  1  1  0  0  0
M  END
> <minimizedAffinity>
-3.14388

$$$$



  6  6  0  0  0  0  0  0  0  0999 V2000
  -40.6366   64.9512   30.9001 C   0  0  0  0  0  0  0  0  0  0  0  0
  -40.4474   63.7692   31.6159 C   0  0  0  0  0  0  0  0  0  0  0  0
  -40.7580   63.7400   32.9526 C   0  0  0  0  0  0  0  0  0  0  0  0
  -41.2565   64.8911   33.5703 C   0  0  0  0  0  0  0  0  0  0  0  0
  -41.4410   66.0528   32.8604 C   0  0  0  0  0  0  0  0  0  0  0  0
  -41.1326   66.0968   31.5144 C   0  0  0  0  0  0  0  0  0  0  0  0
  1  2  2  0  0  0
  2  3  1  0  0  0
  3  4  2  0  0  0
  4  5  1  0  0  0
  5  6  2  0  0  0
  6  1  1  0  0  0
M  END
> <minimizedAffinity>
-3.14076

$$$$



  6  6  0  0  0  0  0  0  0  0999 V2000
  -39.5728   63.8263   31.6065 C   0  0  0  0  0  0  0  0  0  0  0  0
  -38.4540   63.0569   31.9253 C   0  0  0  0  0  0  0  0  0  0  0  0
  -38.5596   62.0943   32.8981 C   0  0  0  0  0  0  0  0  0  0  0  0
  -39.7820   61.9028   33.5494 C   0  0  0  0  0  0  0  0  0  0  0  0
  -40.8810   62.6635   33.2314 C   0  0  0  0  0  0  0  0  0  0  0  0
  -40.7893   63.6361   32.2544 C   0  0  0  0  0  0  0  0  0  0  0  0
  1  2  2  0  0  0
  2  3  1  0  0  0
  3  4  2  0  0  0
  4  5  1  0  0  0
  5  6  2  0  0  0
  6  1  1  0  0  0
M  END
> <minimizedAffinity>
-3.12027

$$$$



  6  6  0  0  0  0  0  0  0  0999 V2000
  -34.6324   72.3095   27.4671 C   0  0  0  0  0  0  0  0  0  0  0  0
  -33.9009   71.1720   27.1263 C   0  0  0  0  0  0  0  0  0  0  0  0
  -32.7044   71.3183   26.4697 C   0  0  0  0  0  0  0  0  0  0  0  0
  -32.2421   72.6000   26.1556 C   0  0  0  0  0  0  0  0  0  0  0  0
  -32.9667   73.7173   26.4938 C   0  0  0  0  0  0  0  0  0  0  0  0
  -34.1727   73.5850   27.1547 C   0  0  0  0  0  0  0  0  0  0  0  0
  1  2  2  0  0  0
  2  3  1  0  0  0
  3  4  2  0  0  0
  4  5  1  0  0  0
  5  6  2  0  0  0
  6  1  1  0  0  0
M  END
> <minimizedAffinity>
-3.10197

$$$$



  6  6  0  0  0  0  0  0  0  0999 V2000
  -41.3846   66.0902   32.4288 C   0  0  0  0  0  0  0  0  0  0  0  0
  -41.4114   65.4229   33.6532 C   0  0  0  0  0  0  0  0  0  0  0  0
  -41.1236   64.0813   33.6900 C   0  0  0  0  0  0  0  0  0  0  0  0
  -40.8098   63.4103   32.5041 C   0  0  0  0  0  0  0  0  0  0  0  0
  -40.7847   64.0726   31.3006 C   0  0  0  0  0  0  0  0  0  0  0  0
  -41.0723   65.4228   31.2486 C   0  0  0  0  0  0  0  0  0  0  0  0
  1  2  2  0  0  0
  2  3  1  0  0  0
  3  4  2  0  0  0
  4  5  1  0  0  0
  5  6  2  0  0  0
  6  1  1  0  0  0
M  END
> <minimizedAffinity>
-3.10056

$$$$



  6  6  0  0  0  0  0  0  0  0999 V2000
  -32.1527   70.7977   29.1259 C   0  0  0  0  0  0  0  0  0  0  0  0
  -31.1862   70.1940   28.3217 C   0  0  0  0  0  0  0  0  0  0  0  0
  -31.4193   70.0705   26.9746 C   0  0  0  0  0  0  0  0  0  0  0  0
  -32.6166   70.5501   26.4348 C   0  0  0  0  0  0  0  0  0  0  0  0
  -33.5653   71.1441   27.2316 C   0  0  0  0  0  0  0  0  0  0  0  0
  -33.3442   71.2751   28.5891 C   0  0  0  0  0  0  0  0  0  0  0  0
  1  2  2  0  0  0
  2  3  1  0  0  0
  3  4  2  0  0  0
  4  5  1  0  0  0
  5  6  2  0  0  0
  6  1  1  0  0  0
M  END
> <minimizedAffinity>
-3.09891

$$$$



  6  6  0  0  0  0  0  0  0  0999 V2000
  -31.4373   70.2722   28.3119 C   0  0  0  0  0  0  0  0  0  0  0  0
  -32.4165   70.8888   29.0906 C   0  0  0  0  0  0  0  0  0  0  0  0
  -33.5396   71.3888   28.4801 C   0  0  0  0  0  0  0  0  0  0  0  0
  -33.6814   71.2716   27.0940 C   0  0  0  0  0  0  0  0  0  0  0  0
  -32.7138   70.6632   26.3317 C   0  0  0  0  0  0  0  0  0  0  0  0
  -31.5782   70.1554   26.9327 C   0  0  0  0  0  0  0  0  0  0  0  0
  1  2  2  0  0  0
  2  3  1  0  0  0
  3  4  2  0  0  0
  4  5  1  0  0  0
  5  6  2  0  0  0
  6  1  1  0  0  0
M  END
> <minimizedAffinity>
-3.09633

$$$$



  6  6  0  0  0  0  0  0  0  0999 V2000
  -37.2436   69.6556   30.7405 C   0  0  0  0  0  0  0  0  0  0  0  0
  -37.2487   68.9475   29.5389 C   0  0  0  0  0  0  0  0  0  0  0  0
  -37.9825   67.7911   29.4474 C   0  0  0  0  0  0  0  0  0  0  0  0
  -38.7089   67.3454   30.5560 C   0  0  0  0  0  0  0  0  0  0  0  0
  -38.7004   68.0470   31.7373 C   0  0  0  0  0  0  0  0  0  0  0  0
  -37.9663   69.2125   31.8438 C   0  0  0  0  0  0  0  0  0  0  0  0
  1  2  2  0  0  0
  2  3  1  0  0  0
  3  4  2  0  0  0
  4  5  1  0  0  0
  5  6  2  0  0  0
  6  1  1  0  0  0
M  END
> <minimizedAffinity>
-3.09316

$$$$



  6  6  0  0  0  0  0  0  0  0999 V2000
  -38.6640   68.2395   31.4995 C   0  0  0  0  0  0  0  0  0  0  0  0
  -37.8500   69.3414   31.7608 C   0  0  0  0  0  0  0  0  0  0  0  0
  -37.0498   69.8339   30.7601 C   0  0  0  0  0  0  0  0  0  0  0  0
  -37.0650   69.2245   29.5017 C   0  0  0  0  0  0  0  0  0  0  0  0
  -37.8690   68.1392   29.2497 C   0  0  0  0  0  0  0  0  0  0  0  0
  -38.6795   67.6329   30.2474 C   0  0  0  0  0  0  0  0  0  0  0  0
  1  2  2  0  0  0
  2  3  1  0  0  0
  3  4  2  0  0  0
  4  5  1  0  0  0
  5  6  2  0  0  0
  6  1  1  0  0  0
M  END
> <minimizedAffinity>
-3.08208

$$$$



  6  6  0  0  0  0  0  0  0  0999 V2000
  -38.3669   68.3009   29.5163 C   0  0  0  0  0  0  0  0  0  0  0  0
  -37.3738   68.9970   28.8276 C   0  0  0  0  0  0  0  0  0  0  0  0
  -36.5827   69.8856   29.5122 C   0  0  0  0  0  0  0  0  0  0  0  0
  -36.7857   70.0762   30.8824 C   0  0  0  0  0  0  0  0  0  0  0  0
  -37.7654   69.3878   31.5561 C   0  0  0  0  0  0  0  0  0  0  0  0
  -38.5691   68.4904   30.8798 C   0  0  0  0  0  0  0  0  0  0  0  0
  1  2  2  0  0  0
  2  3  1  0  0  0
  3  4  2  0  0  0
  4  5  1  0  0  0
  5  6  2  0  0  0
  6  1  1  0  0  0
M  END
> <minimizedAffinity>
-3.03610

$$$$



  6  6  0  0  0  0  0  0  0  0999 V2000
  -37.7128   69.7421   31.5254 C   0  0  0  0  0  0  0  0  0  0  0  0
  -38.7578   68.9925   30.9856 C   0  0  0  0  0  0  0  0  0  0  0  0
  -38.6967   68.6122   29.6681 C   0  0  0  0  0  0  0  0  0  0  0  0
  -37.5925   68.9814   28.8939 C   0  0  0  0  0  0  0  0  0  0  0  0
  -36.5657   69.7199   29.4308 C   0  0  0  0  0  0  0  0  0  0  0  0
  -36.6138   70.1097   30.7554 C   0  0  0  0  0  0  0  0  0  0  0  0
  1  2  2  0  0  0
  2  3  1  0  0  0
  3  4  2  0  0  0
  4  5  1  0  0  0
  5  6  2  0  0  0
  6  1  1  0  0  0
M  END
> <minimizedAffinity>
-3.02818

$$$$



  6  6  0  0  0  0  0  0  0  0999 V2000
  -37.0532   69.5962   30.9627 C   0  0  0  0  0  0  0  0  0  0  0  0
  -35.9620   70.4603   30.8748 C   0  0  0  0  0  0  0  0  0  0  0  0
  -35.5110   70.8440   29.6364 C   0  0  0  0  0  0  0  0  0  0  0  0
  -36.1511   70.3637   28.4898 C   0  0  0  0  0  0  0  0  0  0  0  0
  -37.2258   69.5127   28.5822 C   0  0  0  0  0  0  0  0  0  0  0  0
  -37.6904   69.1181   29.8220 C   0  0  0  0  0  0  0  0  0  0  0  0
  1  2  2  0  0  0
  2  3  1  0  0  0
  3  4  2  0  0  0
  4  5  1  0  0  0
  5  6  2  0  0  0
  6  1  1  0  0  0
M  END
> <minimizedAffinity>
-3.00926

$$$$



  6  6  0  0  0  0  0  0  0  0999 V2000
  -37.1883   69.2227   30.1334 C   0  0  0  0  0  0  0  0  0  0  0  0
  -37.8408   69.1777   28.9015 C   0  0  0  0  0  0  0  0  0  0  0  0
  -37.4656   70.0539   27.9138 C   0  0  0  0  0  0  0  0  0  0  0  0
  -36.4401   70.9722   28.1592 C   0  0  0  0  0  0  0  0  0  0  0  0
  -35.8006   71.0121   29.3746 C   0  0  0  0  0  0  0  0  0  0  0  0
  -36.1678   70.1363   30.3780 C   0  0  0  0  0  0  0  0  0  0  0  0
  1  2  2  0  0  0
  2  3  1  0  0  0
  3  4  2  0  0  0
  4  5  1  0  0  0
  5  6  2  0  0  0
  6  1  1  0  0  0
M  END
> <minimizedAffinity>
-3.00895

$$$$



  6  6  0  0  0  0  0  0  0  0999 V2000
  -41.3039   65.9516   31.8680 C   0  0  0  0  0  0  0  0  0  0  0  0
  -41.3323   66.1968   33.2407 C   0  0  0  0  0  0  0  0  0  0  0  0
  -40.5866   67.2302   33.7509 C   0  0  0  0  0  0  0  0  0  0  0  0
  -39.8151   68.0155   32.8889 C   0  0  0  0  0  0  0  0  0  0  0  0
  -39.7909   67.7696   31.5373 C   0  0  0  0  0  0  0  0  0  0  0  0
  -40.5363   66.7329   31.0099 C   0  0  0  0  0  0  0  0  0  0  0  0
  1  2  2  0  0  0
  2  3  1  0  0  0
  3  4  2  0  0  0
  4  5  1  0  0  0
  5  6  2  0  0  0
  6  1  1  0  0  0
M  END
> <minimizedAffinity>
-2.98211

$$$$



  6  6  0  0  0  0  0  0  0  0999 V2000
  -35.8031   72.6714   29.8509 C   0  0  0  0  0  0  0  0  0  0  0  0
  -35.0012   72.8141   28.7187 C   0  0  0  0  0  0  0  0  0  0  0  0
  -35.5680   72.6761   27.4762 C   0  0  0  0  0  0  0  0  0  0  0  0
  -36.9337   72.3961   27.3681 C   0  0  0  0  0  0  0  0  0  0  0  0
  -37.7190   72.2566   28.4868 C   0  0  0  0  0  0  0  0  0  0  0  0
  -37.1620   72.3928   29.7437 C   0  0  0  0  0  0  0  0  0  0  0  0
  1  2  2  0  0  0
  2  3  1  0  0  0
  3  4  2  0  0  0
  4  5  1  0  0  0
  5  6  2  0  0  0
  6  1  1  0  0  0
M  END
> <minimizedAffinity>
-2.96667

$$$$



  6  6  0  0  0  0  0  0  0  0999 V2000
  -36.8209   72.4322   29.8107 C   0  0  0  0  0  0  0  0  0  0  0  0
  -37.5091   72.2349   28.6137 C   0  0  0  0  0  0  0  0  0  0  0  0
  -36.8428   72.3973   27.4247 C   0  0  0  0  0  0  0  0  0  0  0  0
  -35.4913   72.7559   27.4346 C   0  0  0  0  0  0  0  0  0  0  0  0
  -34.8181   72.9489   28.6167 C   0  0  0  0  0  0  0  0  0  0  0  0
  -35.4761   72.7890   29.8209 C   0  0  0  0  0  0  0  0  0  0  0  0
  1  2  2  0  0  0
  2  3  1  0  0  0
  3  4  2  0  0  0
  4  5  1  0  0  0
  5  6  2  0  0  0
  6  1  1  0  0  0
M  END
> <minimizedAffinity>
-2.96436

$$$$



  6  6  0  0  0  0  0  0  0  0999 V2000
  -37.7146   72.2599   28.5494 C   0  0  0  0  0  0  0  0  0  0  0  0
  -37.1335   72.4215   29.8070 C   0  0  0  0  0  0  0  0  0  0  0  0
  -35.7908   72.6930   29.8933 C   0  0  0  0  0  0  0  0  0  0  0  0
  -35.0325   72.8025   28.7236 C   0  0  0  0  0  0  0  0  0  0  0  0
  -35.6100   72.6425   27.4872 C   0  0  0  0  0  0  0  0  0  0  0  0
  -36.9603   72.3688   27.3853 C   0  0  0  0  0  0  0  0  0  0  0  0
  1  2  2  0  0  0
  2  3  1  0  0  0
  3  4  2  0  0  0
  4  5  1  0  0  0
  5  6  2  0  0  0
  6  1  1  0  0  0
M  END
> <minimizedAffinity>
-2.96284

$$$$



  6  6  0  0  0  0  0  0  0  0999 V2000
  -38.3835   65.4314   31.1684 C   0  0  0  0  0  0  0  0  0  0  0  0
  -39.2377   66.2120   30.3897 C   0  0  0  0  0  0  0  0  0  0  0  0
  -40.3781   66.7241   30.9565 C   0  0  0  0  0  0  0  0  0  0  0  0
  -40.6620   66.4552   32.2990 C   0  0  0  0  0  0  0  0  0  0  0  0
  -39.8170   65.6857   33.0615 C   0  0  0  0  0  0  0  0  0  0  0  0
  -38.6657   65.1637   32.5042 C   0  0  0  0  0  0  0  0  0  0  0  0
  1  2  2  0  0  0
  2  3  1  0  0  0
  3  4  2  0  0  0
  4  5  1  0  0  0
  5  6  2  0  0  0
  6  1  1  0  0  0
M  END
> <minimizedAffinity>
-2.95343

$$$$



  6  6  0  0  0  0  0  0  0  0999 V2000
  -38.5625   72.2493   29.5198 C   0  0  0  0  0  0  0  0  0  0  0  0
  -39.5546   71.3132   29.2289 C   0  0  0  0  0  0  0  0  0  0  0  0
  -39.4027   70.4952   28.1372 C   0  0  0  0  0  0  0  0  0  0  0  0
  -38.2606   70.6144   27.3394 C   0  0  0  0  0  0  0  0  0  0  0  0
  -37.2862   71.5382   27.6306 C   0  0  0  0  0  0  0  0  0  0  0  0
  -37.4258   72.3681   28.7262 C   0  0  0  0  0  0  0  0  0  0  0  0
  1  2  2  0  0  0
  2  3  1  0  0  0
  3  4  2  0  0  0
  4  5  1  0  0  0
  5  6  2  0  0  0
  6  1  1  0  0  0
M  END
> <minimizedAffinity>
-2.94754

$$$$



  6  6  0  0  0  0  0  0  0  0999 V2000
  -39.3193   67.3287   32.3942 C   0  0  0  0  0  0  0  0  0  0  0  0
  -40.6111   66.9360   32.7439 C   0  0  0  0  0  0  0  0  0  0  0  0
  -41.2330   65.9552   32.0122 C   0  0  0  0  0  0  0  0  0  0  0  0
  -40.5630   65.3695   30.9336 C   0  0  0  0  0  0  0  0  0  0  0  0
  -39.2904   65.7600   30.5935 C   0  0  0  0  0  0  0  0  0  0  0  0
  -38.6523   66.7460   31.3210 C   0  0  0  0  0  0  0  0  0  0  0  0
  1  2  2  0  0  0
  2  3  1  0  0  0
  3  4  2  0  0  0
  4  5  1  0  0  0
  5  6  2  0  0  0
  6  1  1  0  0  0
M  END
> <minimizedAffinity>
-2.94117

$$$$



  6  6  0  0  0  0  0  0  0  0999 V2000
  -34.4169   73.3592   28.2160 C   0  0  0  0  0  0  0  0  0  0  0  0
  -33.4595   73.5046   27.2122 C   0  0  0  0  0  0  0  0  0  0  0  0
  -32.9825   72.3857   26.5760 C   0  0  0  0  0  0  0  0  0  0  0  0
  -33.4630   71.1253   26.9441 C   0  0  0  0  0  0  0  0  0  0  0  0
  -34.4062   70.9878   27.9336 C   0  0  0  0  0  0  0  0  0  0  0  0
  -34.8953   72.1051   28.5824 C   0  0  0  0  0  0  0  0  0  0  0  0
  1  2  2  0  0  0
  2  3  1  0  0  0
  3  4  2  0  0  0
  4  5  1  0  0  0
  5  6  2  0  0  0
  6  1  1  0  0  0
M  END
> <minimizedAffinity>
-2.94069

$$$$



  6  6  0  0  0  0  0  0  0  0999 V2000
  -37.0793   71.5693   27.6231 C   0  0  0  0  0  0  0  0  0  0  0  0
  -37.1763   72.4095   28.7321 C   0  0  0  0  0  0  0  0  0  0  0  0
  -38.2860   72.3303   29.5361 C   0  0  0  0  0  0  0  0  0  0  0  0
  -39.2954   71.4123   29.2302 C   0  0  0  0  0  0  0  0  0  0  0  0
  -39.1947   70.5869   28.1365 C   0  0  0  0  0  0  0  0  0  0  0  0
  -38.0836   70.6557   27.3185 C   0  0  0  0  0  0  0  0  0  0  0  0
  1  2  2  0  0  0
  2  3  1  0  0  0
  3  4  2  0  0  0
  4  5  1  0  0  0
  5  6  2  0  0  0
  6  1  1  0  0  0
M  END
> <minimizedAffinity>
-2.92638

$$$$



  6  6  0  0  0  0  0  0  0  0999 V2000
  -38.9764   71.5449   29.4217 C   0  0  0  0  0  0  0  0  0  0  0  0
  -37.8636   72.3819   29.5009 C   0  0  0  0  0  0  0  0  0  0  0  0
  -36.9319   72.3527   28.4934 C   0  0  0  0  0  0  0  0  0  0  0  0
  -37.1143   71.4878   27.4099 C   0  0  0  0  0  0  0  0  0  0  0  0
  -38.2125   70.6654   27.3369 C   0  0  0  0  0  0  0  0  0  0  0  0
  -39.1583   70.6842   28.3438 C   0  0  0  0  0  0  0  0  0  0  0  0
  1  2  2  0  0  0
  2  3  1  0  0  0
  3  4  2  0  0  0
  4  5  1  0  0  0
  5  6  2  0  0  0
  6  1  1  0  0  0
M  END
> <minimizedAffinity>
-2.92166

$$$$



  6  6  0  0  0  0  0  0  0  0999 V2000
  -37.1075   68.1623   40.5377 C   0  0  0  0  0  0  0  0  0  0  0  0
  -36.4429   67.3752   39.5976 C   0  0  0  0  0  0  0  0  0  0  0  0
  -35.1553   66.9733   39.8523 C   0  0  0  0  0  0  0  0  0  0  0  0
  -34.5356   67.3587   41.0450 C   0  0  0  0  0  0  0  0  0  0  0  0
  -35.1950   68.1342   41.9678 C   0  0  0  0  0  0  0  0  0  0  0  0
  -36.4911   68.5459   41.7247 C   0  0  0  0  0  0  0  0  0  0  0  0
  1  2  2  0  0  0
  2  3  1  0  0  0
  3  4  2  0  0  0
  4  5  1  0  0  0
  5  6  2  0  0  0
  6  1  1  0  0  0
M  END
> <minimizedAffinity>
-2.91773

$$$$



  6  6  0  0  0  0  0  0  0  0999 V2000
  -37.1392   68.1807   40.5794 C   0  0  0  0  0  0  0  0  0  0  0  0
  -36.4734   68.5535   41.7469 C   0  0  0  0  0  0  0  0  0  0  0  0
  -35.1828   68.1300   41.9449 C   0  0  0  0  0  0  0  0  0  0  0  0
  -34.5611   67.3358   40.9765 C   0  0  0  0  0  0  0  0  0  0  0  0
  -35.2216   66.9715   39.8281 C   0  0  0  0  0  0  0  0  0  0  0  0
  -36.5209   67.3904   39.6156 C   0  0  0  0  0  0  0  0  0  0  0  0
  1  2  2  0  0  0
  2  3  1  0  0  0
  3  4  2  0  0  0
  4  5  1  0  0  0
  5  6  2  0  0  0
  6  1  1  0  0  0
M  END
> <minimizedAffinity>
-2.90828

$$$$



  6  6  0  0  0  0  0  0  0  0999 V2000
  -36.4665   68.5476   41.7200 C   0  0  0  0  0  0  0  0  0  0  0  0
  -37.1303   68.1796   40.5499 C   0  0  0  0  0  0  0  0  0  0  0  0
  -36.4810   67.3920   39.6322 C   0  0  0  0  0  0  0  0  0  0  0  0
  -35.1709   66.9742   39.8858 C   0  0  0  0  0  0  0  0  0  0  0  0
  -34.5217   67.3396   41.0402 C   0  0  0  0  0  0  0  0  0  0  0  0
  -35.1629   68.1321   41.9727 C   0  0  0  0  0  0  0  0  0  0  0  0
  1  2  2  0  0  0
  2  3  1  0  0  0
  3  4  2  0  0  0
  4  5  1  0  0  0
  5  6  2  0  0  0
  6  1  1  0  0  0
M  END
> <minimizedAffinity>
-2.89542

$$$$



  6  6  0  0  0  0  0  0  0  0999 V2000
  -34.8479   67.2061   40.6386 C   0  0  0  0  0  0  0  0  0  0  0  0
  -34.2711   67.3035   41.9047 C   0  0  0  0  0  0  0  0  0  0  0  0
  -33.5994   68.4506   42.2470 C   0  0  0  0  0  0  0  0  0  0  0  0
  -33.5059   69.4968   41.3240 C   0  0  0  0  0  0  0  0  0  0  0  0
  -34.0760   69.3955   40.0781 C   0  0  0  0  0  0  0  0  0  0  0  0
  -34.7550   68.2469   39.7200 C   0  0  0  0  0  0  0  0  0  0  0  0
  1  2  2  0  0  0
  2  3  1  0  0  0
  3  4  2  0  0  0
  4  5  1  0  0  0
  5  6  2  0  0  0
  6  1  1  0  0  0
M  END
> <minimizedAffinity>
-2.89291

$$$$



  6  6  0  0  0  0  0  0  0  0999 V2000
  -33.5034   69.5074   41.3804 C   0  0  0  0  0  0  0  0  0  0  0  0
  -33.5969   68.4413   42.2748 C   0  0  0  0  0  0  0  0  0  0  0  0
  -34.2568   67.3011   41.8893 C   0  0  0  0  0  0  0  0  0  0  0  0
  -34.8213   67.2291   40.6121 C   0  0  0  0  0  0  0  0  0  0  0  0
  -34.7262   68.2823   39.7350 C   0  0  0  0  0  0  0  0  0  0  0  0
  -34.0649   69.4360   40.1094 C   0  0  0  0  0  0  0  0  0  0  0  0
  1  2  2  0  0  0
  2  3  1  0  0  0
  3  4  2  0  0  0
  4  5  1  0  0  0
  5  6  2  0  0  0
  6  1  1  0  0  0
M  END
> <minimizedAffinity>
-2.89134

$$$$



  6  6  0  0  0  0  0  0  0  0999 V2000
  -34.1679   69.3504   39.9724 C   0  0  0  0  0  0  0  0  0  0  0  0
  -34.8102   68.1594   39.6345 C   0  0  0  0  0  0  0  0  0  0  0  0
  -34.8726   67.1475   40.5599 C   0  0  0  0  0  0  0  0  0  0  0  0
  -34.2935   67.3281   41.8197 C   0  0  0  0  0  0  0  0  0  0  0  0
  -33.6620   68.5036   42.1474 C   0  0  0  0  0  0  0  0  0  0  0  0
  -33.5916   69.5305   41.2259 C   0  0  0  0  0  0  0  0  0  0  0  0
  1  2  2  0  0  0
  2  3  1  0  0  0
  3  4  2  0  0  0
  4  5  1  0  0  0
  5  6  2  0  0  0
  6  1  1  0  0  0
M  END
> <minimizedAffinity>
-2.88909

$$$$



  6  6  0  0  0  0  0  0  0  0999 V2000
  -35.5446   67.1896   39.0110 C   0  0  0  0  0  0  0  0  0  0  0  0
  -36.6450   67.4731   39.8197 C   0  0  0  0  0  0  0  0  0  0  0  0
  -36.4734   68.2619   40.9299 C   0  0  0  0  0  0  0  0  0  0  0  0
  -35.2036   68.7651   41.2290 C   0  0  0  0  0  0  0  0  0  0  0  0
  -34.1230   68.4828   40.4288 C   0  0  0  0  0  0  0  0  0  0  0  0
  -34.2810   67.6902   39.3083 C   0  0  0  0  0  0  0  0  0  0  0  0
  1  2  2  0  0  0
  2  3  1  0  0  0
  3  4  2  0  0  0
  4  5  1  0  0  0
  5  6  2  0  0  0
  6  1  1  0  0  0
M  END
> <minimizedAffinity>
-2.88070

$$$$



  6  6  0  0  0  0  0  0  0  0999 V2000
  -33.6253   68.5015   42.2296 C   0  0  0  0  0  0  0  0  0  0  0  0
  -33.5212   69.5793   41.3505 C   0  0  0  0  0  0  0  0  0  0  0  0
  -34.0792   69.4790   40.1005 C   0  0  0  0  0  0  0  0  0  0  0  0
  -34.7396   68.3029   39.7321 C   0  0  0  0  0  0  0  0  0  0  0  0
  -34.8393   67.2441   40.6021 C   0  0  0  0  0  0  0  0  0  0  0  0
  -34.2824   67.3310   41.8634 C   0  0  0  0  0  0  0  0  0  0  0  0
  1  2  2  0  0  0
  2  3  1  0  0  0
  3  4  2  0  0  0
  4  5  1  0  0  0
  5  6  2  0  0  0
  6  1  1  0  0  0
M  END
> <minimizedAffinity>
-2.87765

$$$$



  6  6  0  0  0  0  0  0  0  0999 V2000
  -32.2397   72.6333   27.6419 C   0  0  0  0  0  0  0  0  0  0  0  0
  -33.0266   72.1097   26.6163 C   0  0  0  0  0  0  0  0  0  0  0  0
  -32.8211   70.8146   26.2104 C   0  0  0  0  0  0  0  0  0  0  0  0
  -31.8306   70.0464   26.8301 C   0  0  0  0  0  0  0  0  0  0  0  0
  -31.0584   70.5671   27.8401 C   0  0  0  0  0  0  0  0  0  0  0  0
  -31.2541   71.8691   28.2587 C   0  0  0  0  0  0  0  0  0  0  0  0
  1  2  2  0  0  0
  2  3  1  0  0  0
  3  4  2  0  0  0
  4  5  1  0  0  0
  5  6  2  0  0  0
  6  1  1  0  0  0
M  END
> <minimizedAffinity>
-2.86652

$$$$



  6  6  0  0  0  0  0  0  0  0999 V2000
  -47.2331   59.5288   38.3250 C   0  0  0  0  0  0  0  0  0  0  0  0
  -47.0932   60.3806   37.2295 C   0  0  0  0  0  0  0  0  0  0  0  0
  -47.8724   60.1746   36.1185 C   0  0  0  0  0  0  0  0  0  0  0  0
  -48.7890   59.1188   36.1049 C   0  0  0  0  0  0  0  0  0  0  0  0
  -48.9229   58.2827   37.1869 C   0  0  0  0  0  0  0  0  0  0  0  0
  -48.1451   58.4782   38.3118 C   0  0  0  0  0  0  0  0  0  0  0  0
  1  2  2  0  0  0
  2  3  1  0  0  0
  3  4  2  0  0  0
  4  5  1  0  0  0
  5  6  2  0  0  0
  6  1  1  0  0  0
M  END
> <minimizedAffinity>
-2.83798

$$$$



  6  6  0  0  0  0  0  0  0  0999 V2000
  -33.9142   73.5109   29.4529 C   0  0  0  0  0  0  0  0  0  0  0  0
  -35.0435   72.9911   30.0852 C   0  0  0  0  0  0  0  0  0  0  0  0
  -36.0448   72.4440   29.3222 C   0  0  0  0  0  0  0  0  0  0  0  0
  -35.9153   72.4176   27.9302 C   0  0  0  0  0  0  0  0  0  0  0  0
  -34.8006   72.9310   27.3124 C   0  0  0  0  0  0  0  0  0  0  0  0
  -33.7850   73.4847   28.0678 C   0  0  0  0  0  0  0  0  0  0  0  0
  1  2  2  0  0  0
  2  3  1  0  0  0
  3  4  2  0  0  0
  4  5  1  0  0  0
  5  6  2  0  0  0
  6  1  1  0  0  0
M  END
> <minimizedAffinity>
-2.82789

$$$$



  6  6  0  0  0  0  0  0  0  0999 V2000
  -35.5078   70.5696   29.1552 C   0  0  0  0  0  0  0  0  0  0  0  0
  -35.2251   70.9594   30.4641 C   0  0  0  0  0  0  0  0  0  0  0  0
  -34.8297   72.2513   30.7065 C   0  0  0  0  0  0  0  0  0  0  0  0
  -34.7179   73.1499   29.6411 C   0  0  0  0  0  0  0  0  0  0  0  0
  -34.9977   72.7607   28.3535 C   0  0  0  0  0  0  0  0  0  0  0  0
  -35.3967   71.4635   28.0948 C   0  0  0  0  0  0  0  0  0  0  0  0
  1  2  2  0  0  0
  2  3  1  0  0  0
  3  4  2  0  0  0
  4  5  1  0  0  0
  5  6  2  0  0  0
  6  1  1  0  0  0
M  END
> <minimizedAffinity>
-2.81932

$$$$



  6  6  0  0  0  0  0  0  0  0999 V2000
  -34.5118   71.2475   29.3477 C   0  0  0  0  0  0  0  0  0  0  0  0
  -34.3187   71.0562   27.9797 C   0  0  0  0  0  0  0  0  0  0  0  0
  -33.0431   70.8879   27.5016 C   0  0  0  0  0  0  0  0  0  0  0  0
  -31.9644   70.9112   28.3909 C   0  0  0  0  0  0  0  0  0  0  0  0
  -32.1603   71.0999   29.7376 C   0  0  0  0  0  0  0  0  0  0  0  0
  -33.4386   71.2707   30.2329 C   0  0  0  0  0  0  0  0  0  0  0  0
  1  2  2  0  0  0
  2  3  1  0  0  0
  3  4  2  0  0  0
  4  5  1  0  0  0
  5  6  2  0  0  0
  6  1  1  0  0  0
M  END
> <minimizedAffinity>
-2.80383

$$$$



  6  6  0  0  0  0  0  0  0  0999 V2000
  -34.1634   71.2679   30.4344 C   0  0  0  0  0  0  0  0  0  0  0  0
  -32.7991   71.2935   30.1461 C   0  0  0  0  0  0  0  0  0  0  0  0
  -32.3887   71.1676   28.8423 C   0  0  0  0  0  0  0  0  0  0  0  0
  -33.3419   71.0166   27.8305 C   0  0  0  0  0  0  0  0  0  0  0  0
  -34.6847   70.9921   28.1201 C   0  0  0  0  0  0  0  0  0  0  0  0
  -35.1122   71.1177   29.4279 C   0  0  0  0  0  0  0  0  0  0  0  0
  1  2  2  0  0  0
  2  3  1  0  0  0
  3  4  2  0  0  0
  4  5  1  0  0  0
  5  6  2  0  0  0
  6  1  1  0  0  0
M  END
> <minimizedAffinity>
-2.80116

$$$$



  6  6  0  0  0  0  0  0  0  0999 V2000
  -34.9619   70.8243   28.5843 C   0  0  0  0  0  0  0  0  0  0  0  0
  -34.9502   71.7421   27.5342 C   0  0  0  0  0  0  0  0  0  0  0  0
  -34.6042   73.0457   27.7894 C   0  0  0  0  0  0  0  0  0  0  0  0
  -34.2711   73.4287   29.0922 C   0  0  0  0  0  0  0  0  0  0  0  0
  -34.2842   72.5204   30.1230 C   0  0  0  0  0  0  0  0  0  0  0  0
  -34.6305   71.2050   29.8808 C   0  0  0  0  0  0  0  0  0  0  0  0
  1  2  2  0  0  0
  2  3  1  0  0  0
  3  4  2  0  0  0
  4  5  1  0  0  0
  5  6  2  0  0  0
  6  1  1  0  0  0
M  END
> <minimizedAffinity>
-2.79657

$$$$



  6  6  0  0  0  0  0  0  0  0999 V2000
  -33.9360   67.0781   42.4635 C   0  0  0  0  0  0  0  0  0  0  0  0
  -34.5955   67.3563   41.2665 C   0  0  0  0  0  0  0  0  0  0  0  0
  -34.3884   68.5675   40.6548 C   0  0  0  0  0  0  0  0  0  0  0  0
  -33.5233   69.4971   41.2402 C   0  0  0  0  0  0  0  0  0  0  0  0
  -32.8761   69.2178   42.4195 C   0  0  0  0  0  0  0  0  0  0  0  0
  -33.0751   68.0028   43.0463 C   0  0  0  0  0  0  0  0  0  0  0  0
  1  2  2  0  0  0
  2  3  1  0  0  0
  3  4  2  0  0  0
  4  5  1  0  0  0
  5  6  2  0  0  0
  6  1  1  0  0  0
M  END
> <minimizedAffinity>
-2.76592

$$$$



  6  6  0  0  0  0  0  0  0  0999 V2000
  -32.6493   71.3043   27.9414 C   0  0  0  0  0  0  0  0  0  0  0  0
  -33.9237   71.0982   27.4135 C   0  0  0  0  0  0  0  0  0  0  0  0
  -34.9910   70.9814   28.2687 C   0  0  0  0  0  0  0  0  0  0  0  0
  -34.7823   71.0708   29.6485 C   0  0  0  0  0  0  0  0  0  0  0  0
  -33.5248   71.2741   30.1632 C   0  0  0  0  0  0  0  0  0  0  0  0
  -32.4414   71.3934   29.3142 C   0  0  0  0  0  0  0  0  0  0  0  0
  1  2  2  0  0  0
  2  3  1  0  0  0
  3  4  2  0  0  0
  4  5  1  0  0  0
  5  6  2  0  0  0
  6  1  1  0  0  0
M  END
> <minimizedAffinity>
-2.76473

$$$$



  6  6  0  0  0  0  0  0  0  0999 V2000
  -34.4291   68.6374   40.6363 C   0  0  0  0  0  0  0  0  0  0  0  0
  -33.5214   69.5382   41.1930 C   0  0  0  0  0  0  0  0  0  0  0  0
  -32.8634   69.1966   42.3481 C   0  0  0  0  0  0  0  0  0  0  0  0
  -33.1138   67.9565   42.9438 C   0  0  0  0  0  0  0  0  0  0  0  0
  -34.0090   67.0729   42.3911 C   0  0  0  0  0  0  0  0  0  0  0  0
  -34.6785   67.4035   41.2287 C   0  0  0  0  0  0  0  0  0  0  0  0
  1  2  2  0  0  0
  2  3  1  0  0  0
  3  4  2  0  0  0
  4  5  1  0  0  0
  5  6  2  0  0  0
  6  1  1  0  0  0
M  END
> <minimizedAffinity>
-2.75714

$$$$



  6  6  0  0  0  0  0  0  0  0999 V2000
  -35.2827   72.6427   28.7879 C   0  0  0  0  0  0  0  0  0  0  0  0
  -35.7352   71.4659   28.1916 C   0  0  0  0  0  0  0  0  0  0  0  0
  -36.0011   70.3753   28.9816 C   0  0  0  0  0  0  0  0  0  0  0  0
  -35.8144   70.4633   30.3646 C   0  0  0  0  0  0  0  0  0  0  0  0
  -35.3685   71.6251   30.9468 C   0  0  0  0  0  0  0  0  0  0  0  0
  -35.0968   72.7306   30.1640 C   0  0  0  0  0  0  0  0  0  0  0  0
  1  2  2  0  0  0
  2  3  1  0  0  0
  3  4  2  0  0  0
  4  5  1  0  0  0
  5  6  2  0  0  0
  6  1  1  0  0  0
M  END
> <minimizedAffinity>
-2.74349

$$$$



  6  6  0  0  0  0  0  0  0  0999 V2000
  -42.0202   63.9837   35.0989 C   0  0  0  0  0  0  0  0  0  0  0  0
  -42.0214   62.6279   34.7718 C   0  0  0  0  0  0  0  0  0  0  0  0
  -41.4554   62.2251   33.5879 C   0  0  0  0  0  0  0  0  0  0  0  0
  -40.8900   63.1775   32.7344 C   0  0  0  0  0  0  0  0  0  0  0  0
  -40.8915   64.5119   33.0615 C   0  0  0  0  0  0  0  0  0  0  0  0
  -41.4577   64.9316   34.2498 C   0  0  0  0  0  0  0  0  0  0  0  0
  1  2  2  0  0  0
  2  3  1  0  0  0
  3  4  2  0  0  0
  4  5  1  0  0  0
  5  6  2  0  0  0
  6  1  1  0  0  0
M  END
> <minimizedAffinity>
-2.74333

$$$$



  6  6  0  0  0  0  0  0  0  0999 V2000
  -45.4186   61.0074   35.6672 C   0  0  0  0  0  0  0  0  0  0  0  0
  -45.4222   61.9065   36.7335 C   0  0  0  0  0  0  0  0  0  0  0  0
  -44.3202   62.6971   36.9452 C   0  0  0  0  0  0  0  0  0  0  0  0
  -43.2182   62.5874   36.0916 C   0  0  0  0  0  0  0  0  0  0  0  0
  -43.2201   61.7001   35.0426 C   0  0  0  0  0  0  0  0  0  0  0  0
  -44.3223   60.8981   34.8176 C   0  0  0  0  0  0  0  0  0  0  0  0
  1  2  2  0  0  0
  2  3  1  0  0  0
  3  4  2  0  0  0
  4  5  1  0  0  0
  5  6  2  0  0  0
  6  1  1  0  0  0
M  END
> <minimizedAffinity>
-2.73369

$$$$



  6  6  0  0  0  0  0  0  0  0999 V2000
  -38.4453   64.6524   32.4997 C   0  0  0  0  0  0  0  0  0  0  0  0
  -39.5253   65.5156   32.6836 C   0  0  0  0  0  0  0  0  0  0  0  0
  -40.7513   64.9923   33.0109 C   0  0  0  0  0  0  0  0  0  0  0  0
  -40.8951   63.6088   33.1537 C   0  0  0  0  0  0  0  0  0  0  0  0
  -39.8278   62.7630   32.9715 C   0  0  0  0  0  0  0  0  0  0  0  0
  -38.5880   63.2757   32.6418 C   0  0  0  0  0  0  0  0  0  0  0  0
  1  2  2  0  0  0
  2  3  1  0  0  0
  3  4  2  0  0  0
  4  5  1  0  0  0
  5  6  2  0  0  0
  6  1  1  0  0  0
M  END
> <minimizedAffinity>
-2.71275

$$$$



  6  6  0  0  0  0  0  0  0  0999 V2000
  -33.3734   71.9542   28.2391 C   0  0  0  0  0  0  0  0  0  0  0  0
  -33.6880   73.2288   28.7100 C   0  0  0  0  0  0  0  0  0  0  0  0
  -33.4282   73.5402   30.0213 C   0  0  0  0  0  0  0  0  0  0  0  0
  -32.8548   72.5781   30.8583 C   0  0  0  0  0  0  0  0  0  0  0  0
  -32.5467   71.3239   30.3893 C   0  0  0  0  0  0  0  0  0  0  0  0
  -32.8028   70.9965   29.0718 C   0  0  0  0  0  0  0  0  0  0  0  0
  1  2  2  0  0  0
  2  3  1  0  0  0
  3  4  2  0  0  0
  4  5  1  0  0  0
  5  6  2  0  0  0
  6  1  1  0  0  0
M  END
> <minimizedAffinity>
-2.68429

$$$$



  6  6  0  0  0  0  0  0  0  0999 V2000
  -37.6599   72.0847   29.4136 C   0  0  0  0  0  0  0  0  0  0  0  0
  -36.9682   72.7064   30.4530 C   0  0  0  0  0  0  0  0  0  0  0  0
  -35.9647   72.0217   31.0919 C   0  0  0  0  0  0  0  0  0  0  0  0
  -35.6549   70.7185   30.6910 C   0  0  0  0  0  0  0  0  0  0  0  0
  -36.3395   70.1109   29.6663 C   0  0  0  0  0  0  0  0  0  0  0  0
  -37.3520   70.7880   29.0144 C   0  0  0  0  0  0  0  0  0  0  0  0
  1  2  2  0  0  0
  2  3  1  0  0  0
  3  4  2  0  0  0
  4  5  1  0  0  0
  5  6  2  0  0  0
  6  1  1  0  0  0
M  END
> <minimizedAffinity>
-2.68377

$$$$



  6  6  0  0  0  0  0  0  0  0999 V2000
  -38.1448   72.9962   31.2737 C   0  0  0  0  0  0  0  0  0  0  0  0
  -38.3294   72.5132   29.9783 C   0  0  0  0  0  0  0  0  0  0  0  0
  -37.2304   72.2649   29.1943 C   0  0  0  0  0  0  0  0  0  0  0  0
  -35.9505   72.4997   29.7061 C   0  0  0  0  0  0  0  0  0  0  0  0
  -35.7744   72.9755   30.9830 C   0  0  0  0  0  0  0  0  0  0  0  0
  -36.8714   73.2298   31.7833 C   0  0  0  0  0  0  0  0  0  0  0  0
  1  2  2  0  0  0
  2  3  1  0  0  0
  3  4  2  0  0  0
  4  5  1  0  0  0
  5  6  2  0  0  0
  6  1  1  0  0  0
M  END
> <minimizedAffinity>
-2.66941

$$$$



  6  6  0  0  0  0  0  0  0  0999 V2000
  -35.6942   72.8681   30.5661 C   0  0  0  0  0  0  0  0  0  0  0  0
  -36.5188   73.1777   31.6475 C   0  0  0  0  0  0  0  0  0  0  0  0
  -37.8776   73.0358   31.5145 C   0  0  0  0  0  0  0  0  0  0  0  0
  -38.4087   72.5851   30.3020 C   0  0  0  0  0  0  0  0  0  0  0  0
  -37.5918   72.2814   29.2399 C   0  0  0  0  0  0  0  0  0  0  0  0
  -36.2224   72.4196   29.3596 C   0  0  0  0  0  0  0  0  0  0  0  0
  1  2  2  0  0  0
  2  3  1  0  0  0
  3  4  2  0  0  0
  4  5  1  0  0  0
  5  6  2  0  0  0
  6  1  1  0  0  0
M  END
> <minimizedAffinity>
-2.65142

$$$$



  6  6  0  0  0  0  0  0  0  0999 V2000
  -32.5490   68.7076   43.3680 C   0  0  0  0  0  0  0  0  0  0  0  0
  -32.9873   67.4410   43.7541 C   0  0  0  0  0  0  0  0  0  0  0  0
  -33.8654   66.7624   42.9463 C   0  0  0  0  0  0  0  0  0  0  0  0
  -34.3030   67.3505   41.7556 C   0  0  0  0  0  0  0  0  0  0  0  0
  -33.8679   68.5985   41.3800 C   0  0  0  0  0  0  0  0  0  0  0  0
  -32.9842   69.2931   42.1833 C   0  0  0  0  0  0  0  0  0  0  0  0
  1  2  2  0  0  0
  2  3  1  0  0  0
  3  4  2  0  0  0
  4  5  1  0  0  0
  5  6  2  0  0  0
  6  1  1  0  0  0
M  END
> <minimizedAffinity>
-2.64800

$$$$



  6  6  0  0  0  0  0  0  0  0999 V2000
  -32.0303   72.9723   40.2300 C   0  0  0  0  0  0  0  0  0  0  0  0
  -33.2445   72.3253   40.0011 C   0  0  0  0  0  0  0  0  0  0  0  0
  -33.6169   72.0391   38.7113 C   0  0  0  0  0  0  0  0  0  0  0  0
  -32.7757   72.3999   37.6542 C   0  0  0  0  0  0  0  0  0  0  0  0
  -31.5806   73.0370   37.8854 C   0  0  0  0  0  0  0  0  0  0  0  0
  -31.1930   73.3314   39.1784 C   0  0  0  0  0  0  0  0  0  0  0  0
  1  2  2  0  0  0
  2  3  1  0  0  0
  3  4  2  0  0  0
  4  5  1  0  0  0
  5  6  2  0  0  0
  6  1  1  0  0  0
M  END
> <minimizedAffinity>
-2.62026

$$$$



  6  6  0  0  0  0  0  0  0  0999 V2000
  -32.8140   72.3953   37.6898 C   0  0  0  0  0  0  0  0  0  0  0  0
  -33.6492   72.0746   38.7598 C   0  0  0  0  0  0  0  0  0  0  0  0
  -33.2458   72.3764   40.0367 C   0  0  0  0  0  0  0  0  0  0  0  0
  -32.0098   72.9975   40.2410 C   0  0  0  0  0  0  0  0  0  0  0  0
  -31.1911   73.3113   39.1833 C   0  0  0  0  0  0  0  0  0  0  0  0
  -31.5842   73.0134   37.8928 C   0  0  0  0  0  0  0  0  0  0  0  0
  1  2  2  0  0  0
  2  3  1  0  0  0
  3  4  2  0  0  0
  4  5  1  0  0  0
  5  6  2  0  0  0
  6  1  1  0  0  0
M  END
> <minimizedAffinity>
-2.61841

$$$$



  6  6  0  0  0  0  0  0  0  0999 V2000
  -33.2681   72.4819   39.9989 C   0  0  0  0  0  0  0  0  0  0  0  0
  -32.0202   73.0580   40.2356 C   0  0  0  0  0  0  0  0  0  0  0  0
  -31.1862   73.3065   39.1741 C   0  0  0  0  0  0  0  0  0  0  0  0
  -31.6009   72.9791   37.8795 C   0  0  0  0  0  0  0  0  0  0  0  0
  -32.8314   72.4118   37.6519 C   0  0  0  0  0  0  0  0  0  0  0  0
  -33.6811   72.1560   38.7108 C   0  0  0  0  0  0  0  0  0  0  0  0
  1  2  2  0  0  0
  2  3  1  0  0  0
  3  4  2  0  0  0
  4  5  1  0  0  0
  5  6  2  0  0  0
  6  1  1  0  0  0
M  END
> <minimizedAffinity>
-2.61831

$$$$



  6  6  0  0  0  0  0  0  0  0999 V2000
  -31.2113   73.2789   39.1561 C   0  0  0  0  0  0  0  0  0  0  0  0
  -31.5954   72.9736   37.8505 C   0  0  0  0  0  0  0  0  0  0  0  0
  -32.8230   72.4000   37.6315 C   0  0  0  0  0  0  0  0  0  0  0  0
  -33.6633   72.1331   38.7168 C   0  0  0  0  0  0  0  0  0  0  0  0
  -33.2800   72.4360   40.0009 C   0  0  0  0  0  0  0  0  0  0  0  0
  -32.0472   73.0136   40.2362 C   0  0  0  0  0  0  0  0  0  0  0  0
  1  2  2  0  0  0
  2  3  1  0  0  0
  3  4  2  0  0  0
  4  5  1  0  0  0
  5  6  2  0  0  0
  6  1  1  0  0  0
M  END
> <minimizedAffinity>
-2.61778

$$$$



  6  6  0  0  0  0  0  0  0  0999 V2000
  -36.1307   70.2839   29.9198 C   0  0  0  0  0  0  0  0  0  0  0  0
  -35.1644   70.9682   30.6568 C   0  0  0  0  0  0  0  0  0  0  0  0
  -35.4041   72.2669   31.0307 C   0  0  0  0  0  0  0  0  0  0  0  0
  -36.6080   72.8784   30.6676 C   0  0  0  0  0  0  0  0  0  0  0  0
  -37.5567   72.1996   29.9416 C   0  0  0  0  0  0  0  0  0  0  0  0
  -37.3288   70.8920   29.5584 C   0  0  0  0  0  0  0  0  0  0  0  0
  1  2  2  0  0  0
  2  3  1  0  0  0
  3  4  2  0  0  0
  4  5  1  0  0  0
  5  6  2  0  0  0
  6  1  1  0  0  0
M  END
> <minimizedAffinity>
-2.59646

$$$$



  6  6  0  0  0  0  0  0  0  0999 V2000
  -39.1705   70.7828   31.3760 C   0  0  0  0  0  0  0  0  0  0  0  0
  -39.6455   71.7910   30.5375 C   0  0  0  0  0  0  0  0  0  0  0  0
  -40.0756   71.4640   29.2757 C   0  0  0  0  0  0  0  0  0  0  0  0
  -40.0300   70.1313   28.8551 C   0  0  0  0  0  0  0  0  0  0  0  0
  -39.5612   69.1420   29.6853 C   0  0  0  0  0  0  0  0  0  0  0  0
  -39.1250   69.4566   30.9579 C   0  0  0  0  0  0  0  0  0  0  0  0
  1  2  2  0  0  0
  2  3  1  0  0  0
  3  4  2  0  0  0
  4  5  1  0  0  0
  5  6  2  0  0  0
  6  1  1  0  0  0
M  END
> <minimizedAffinity>
-2.57594

$$$$



  6  6  0  0  0  0  0  0  0  0999 V2000
  -33.6285   73.5393   29.2522 C   0  0  0  0  0  0  0  0  0  0  0  0
  -32.2611   73.8044   29.1803 C   0  0  0  0  0  0  0  0  0  0  0  0
  -31.6636   73.9065   27.9488 C   0  0  0  0  0  0  0  0  0  0  0  0
  -32.4334   73.7437   26.7929 C   0  0  0  0  0  0  0  0  0  0  0  0
  -33.7801   73.4828   26.8694 C   0  0  0  0  0  0  0  0  0  0  0  0
  -34.3948   73.3773   28.1022 C   0  0  0  0  0  0  0  0  0  0  0  0
  1  2  2  0  0  0
  2  3  1  0  0  0
  3  4  2  0  0  0
  4  5  1  0  0  0
  5  6  2  0  0  0
  6  1  1  0  0  0
M  END
> <minimizedAffinity>
-2.55423

$$$$



  6  6  0  0  0  0  0  0  0  0999 V2000
  -35.4645   68.2777   43.0057 C   0  0  0  0  0  0  0  0  0  0  0  0
  -35.8022   67.8226   44.2801 C   0  0  0  0  0  0  0  0  0  0  0  0
  -35.0466   66.8337   44.8590 C   0  0  0  0  0  0  0  0  0  0  0  0
  -33.9561   66.3023   44.1637 C   0  0  0  0  0  0  0  0  0  0  0  0
  -33.6277   66.7544   42.9085 C   0  0  0  0  0  0  0  0  0  0  0  0
  -34.3794   67.7492   42.3135 C   0  0  0  0  0  0  0  0  0  0  0  0
  1  2  2  0  0  0
  2  3  1  0  0  0
  3  4  2  0  0  0
  4  5  1  0  0  0
  5  6  2  0  0  0
  6  1  1  0  0  0
M  END
> <minimizedAffinity>
-2.46654

$$$$



  6  6  0  0  0  0  0  0  0  0999 V2000
  -35.7574   68.2186   43.6909 C   0  0  0  0  0  0  0  0  0  0  0  0
  -36.2886   68.6128   42.4631 C   0  0  0  0  0  0  0  0  0  0  0  0
  -35.6582   68.2262   41.3067 C   0  0  0  0  0  0  0  0  0  0  0  0
  -34.4994   67.4471   41.3800 C   0  0  0  0  0  0  0  0  0  0  0  0
  -33.9805   67.0614   42.5923 C   0  0  0  0  0  0  0  0  0  0  0  0
  -34.6044   67.4433   43.7642 C   0  0  0  0  0  0  0  0  0  0  0  0
  1  2  2  0  0  0
  2  3  1  0  0  0
  3  4  2  0  0  0
  4  5  1  0  0  0
  5  6  2  0  0  0
  6  1  1  0  0  0
M  END
> <minimizedAffinity>
-2.45434

$$$$
