3520


  9  8  0  0  0  0  0  0  0  0999 V2000
  -45.3140   72.2816   26.4521 N   0  0  0  0  0  0  0  0  0  0  0  0
  -47.5393   72.8151   26.6364 N   0  0  0  0  0  0  0  0  0  0  0  0
  -46.7473   70.8486   27.6459 N   0  0  0  0  0  0  0  0  0  0  0  0
  -46.5422   71.9280   26.9460 C   0  0  0  0  0  0  0  0  0  0  0  0
  -44.4963   71.7042   26.6155 H   0  0  0  0  0  0  0  0  0  0  0  0
  -45.1848   73.1294   25.9107 H   0  0  0  0  0  0  0  0  0  0  0  0
  -48.4940   72.6654   26.9441 H   0  0  0  0  0  0  0  0  0  0  0  0
  -47.3537   73.6483   26.0888 H   0  0  0  0  0  0  0  0  0  0  0  0
  -47.7409   70.8056   27.8984 H   0  0  0  0  0  0  0  0  0  0  0  0
  1  4  1  0  0  0
  1  5  1  0  0  0
  1  6  1  0  0  0
  2  4  1  0  0  0
  2  7  1  0  0  0
  2  8  1  0  0  0
  3  4  2  0  0  0
  3  9  1  0  0  0
M  END
> <minimizedAffinity>
-3.24517

$$$$
3520


  9  8  0  0  0  0  0  0  0  0999 V2000
  -35.3746   66.6697   38.9032 N   0  0  0  0  0  0  0  0  0  0  0  0
  -33.9389   68.1432   39.9223 N   0  0  0  0  0  0  0  0  0  0  0  0
  -33.5276   67.4951   37.7032 N   0  0  0  0  0  0  0  0  0  0  0  0
  -34.2458   67.4378   38.7885 C   0  0  0  0  0  0  0  0  0  0  0  0
  -35.7042   66.1019   38.1301 H   0  0  0  0  0  0  0  0  0  0  0  0
  -35.9142   66.6461   39.7616 H   0  0  0  0  0  0  0  0  0  0  0  0
  -33.1263   68.7486   39.9642 H   0  0  0  0  0  0  0  0  0  0  0  0
  -34.5142   68.0806   40.7552 H   0  0  0  0  0  0  0  0  0  0  0  0
  -32.7406   68.1334   37.8643 H   0  0  0  0  0  0  0  0  0  0  0  0
  1  4  1  0  0  0
  1  5  1  0  0  0
  1  6  1  0  0  0
  2  4  1  0  0  0
  2  7  1  0  0  0
  2  8  1  0  0  0
  3  4  2  0  0  0
  3  9  1  0  0  0
M  END
> <minimizedAffinity>
-3.14370

$$$$
3520


  9  8  0  0  0  0  0  0  0  0999 V2000
  -46.1654   71.6327   27.5097 N   0  0  0  0  0  0  0  0  0  0  0  0
  -46.9592   73.3551   26.2159 N   0  0  0  0  0  0  0  0  0  0  0  0
  -45.1768   72.0520   25.4169 N   0  0  0  0  0  0  0  0  0  0  0  0
  -46.0564   72.3316   26.3362 C   0  0  0  0  0  0  0  0  0  0  0  0
  -45.5518   70.8515   27.7145 H   0  0  0  0  0  0  0  0  0  0  0  0
  -46.8614   71.8735   28.2069 H   0  0  0  0  0  0  0  0  0  0  0  0
  -46.9801   73.9472   25.3928 H   0  0  0  0  0  0  0  0  0  0  0  0
  -47.6338   73.5530   26.9469 H   0  0  0  0  0  0  0  0  0  0  0  0
  -45.2938   72.7118   24.6399 H   0  0  0  0  0  0  0  0  0  0  0  0
  1  4  1  0  0  0
  1  5  1  0  0  0
  1  6  1  0  0  0
  2  4  1  0  0  0
  2  7  1  0  0  0
  2  8  1  0  0  0
  3  4  2  0  0  0
  3  9  1  0  0  0
M  END
> <minimizedAffinity>
-3.12520

$$$$
3520


  9  8  0  0  0  0  0  0  0  0999 V2000
  -45.0604   72.1638   25.3400 N   0  0  0  0  0  0  0  0  0  0  0  0
  -46.1877   71.7442   27.2955 N   0  0  0  0  0  0  0  0  0  0  0  0
  -46.7768   73.6231   26.0163 N   0  0  0  0  0  0  0  0  0  0  0  0
  -46.0438   72.5631   26.2065 C   0  0  0  0  0  0  0  0  0  0  0  0
  -44.8591   72.6892   24.4961 H   0  0  0  0  0  0  0  0  0  0  0  0
  -44.5061   71.3326   25.5145 H   0  0  0  0  0  0  0  0  0  0  0  0
  -46.8820   71.9328   28.0103 H   0  0  0  0  0  0  0  0  0  0  0  0
  -45.6035   70.9247   27.4209 H   0  0  0  0  0  0  0  0  0  0  0  0
  -47.4368   73.7095   26.7971 H   0  0  0  0  0  0  0  0  0  0  0  0
  1  4  1  0  0  0
  1  5  1  0  0  0
  1  6  1  0  0  0
  2  4  1  0  0  0
  2  7  1  0  0  0
  2  8  1  0  0  0
  3  4  2  0  0  0
  3  9  1  0  0  0
M  END
> <minimizedAffinity>
-3.08340

$$$$
3520


  9  8  0  0  0  0  0  0  0  0999 V2000
  -33.9689   68.0280   39.7800 N   0  0  0  0  0  0  0  0  0  0  0  0
  -33.8593   67.4176   37.5695 N   0  0  0  0  0  0  0  0  0  0  0  0
  -35.7127   66.7532   38.8489 N   0  0  0  0  0  0  0  0  0  0  0  0
  -34.5703   67.3695   38.7397 C   0  0  0  0  0  0  0  0  0  0  0  0
  -34.3990   68.0633   40.6979 H   0  0  0  0  0  0  0  0  0  0  0  0
  -33.0788   68.5000   39.6643 H   0  0  0  0  0  0  0  0  0  0  0  0
  -34.1985   66.9676   36.7263 H   0  0  0  0  0  0  0  0  0  0  0  0
  -32.9710   67.9036   37.5108 H   0  0  0  0  0  0  0  0  0  0  0  0
  -35.9509   66.3411   37.9400 H   0  0  0  0  0  0  0  0  0  0  0  0
  1  4  1  0  0  0
  1  5  1  0  0  0
  1  6  1  0  0  0
  2  4  1  0  0  0
  2  7  1  0  0  0
  2  8  1  0  0  0
  3  4  2  0  0  0
  3  9  1  0  0  0
M  END
> <minimizedAffinity>
-2.91013

$$$$
3520


  9  8  0  0  0  0  0  0  0  0999 V2000
  -33.7373   70.8974   30.1183 N   0  0  0  0  0  0  0  0  0  0  0  0
  -31.5078   70.3825   30.3063 N   0  0  0  0  0  0  0  0  0  0  0  0
  -32.3066   72.3727   31.2627 N   0  0  0  0  0  0  0  0  0  0  0  0
  -32.5087   71.2723   30.5953 C   0  0  0  0  0  0  0  0  0  0  0  0
  -34.5576   71.4745   30.2692 H   0  0  0  0  0  0  0  0  0  0  0  0
  -33.8640   70.0336   29.6023 H   0  0  0  0  0  0  0  0  0  0  0  0
  -30.5525   70.5467   30.6045 H   0  0  0  0  0  0  0  0  0  0  0  0
  -31.6912   69.5327   29.7840 H   0  0  0  0  0  0  0  0  0  0  0  0
  -31.3121   72.4288   31.5086 H   0  0  0  0  0  0  0  0  0  0  0  0
  1  4  1  0  0  0
  1  5  1  0  0  0
  1  6  1  0  0  0
  2  4  1  0  0  0
  2  7  1  0  0  0
  2  8  1  0  0  0
  3  4  2  0  0  0
  3  9  1  0  0  0
M  END
> <minimizedAffinity>
-2.86489

$$$$
3520


  9  8  0  0  0  0  0  0  0  0999 V2000
  -37.3379   64.8937   31.9208 N   0  0  0  0  0  0  0  0  0  0  0  0
  -35.8001   63.6457   30.7595 N   0  0  0  0  0  0  0  0  0  0  0  0
  -36.7346   62.7677   32.7266 N   0  0  0  0  0  0  0  0  0  0  0  0
  -36.6304   63.7226   31.8466 C   0  0  0  0  0  0  0  0  0  0  0  0
  -37.9863   65.0682   32.6810 H   0  0  0  0  0  0  0  0  0  0  0  0
  -37.2363   65.6192   31.2195 H   0  0  0  0  0  0  0  0  0  0  0  0
  -35.2226   62.8289   30.5924 H   0  0  0  0  0  0  0  0  0  0  0  0
  -35.7365   64.4038   30.0888 H   0  0  0  0  0  0  0  0  0  0  0  0
  -36.1093   62.0013   32.4540 H   0  0  0  0  0  0  0  0  0  0  0  0
  1  4  1  0  0  0
  1  5  1  0  0  0
  1  6  1  0  0  0
  2  4  1  0  0  0
  2  7  1  0  0  0
  2  8  1  0  0  0
  3  4  2  0  0  0
  3  9  1  0  0  0
M  END
> <minimizedAffinity>
-2.84852

$$$$
3520


  9  8  0  0  0  0  0  0  0  0999 V2000
  -35.8087   63.6142   30.7550 N   0  0  0  0  0  0  0  0  0  0  0  0
  -37.3252   64.8876   31.9167 N   0  0  0  0  0  0  0  0  0  0  0  0
  -36.7424   62.7676   32.7411 N   0  0  0  0  0  0  0  0  0  0  0  0
  -36.6300   63.7090   31.8477 C   0  0  0  0  0  0  0  0  0  0  0  0
  -35.2420   62.7885   30.5941 H   0  0  0  0  0  0  0  0  0  0  0  0
  -35.7414   64.3647   30.0762 H   0  0  0  0  0  0  0  0  0  0  0  0
  -37.9669   65.0787   32.6784 H   0  0  0  0  0  0  0  0  0  0  0  0
  -37.2206   65.6048   31.2073 H   0  0  0  0  0  0  0  0  0  0  0  0
  -37.4127   63.0723   33.4556 H   0  0  0  0  0  0  0  0  0  0  0  0
  1  4  1  0  0  0
  1  5  1  0  0  0
  1  6  1  0  0  0
  2  4  1  0  0  0
  2  7  1  0  0  0
  2  8  1  0  0  0
  3  4  2  0  0  0
  3  9  1  0  0  0
M  END
> <minimizedAffinity>
-2.84798

$$$$
3520


  9  8  0  0  0  0  0  0  0  0999 V2000
  -36.7085   61.5459   30.9069 N   0  0  0  0  0  0  0  0  0  0  0  0
  -35.8046   63.6506   30.7518 N   0  0  0  0  0  0  0  0  0  0  0  0
  -36.8975   63.0183   32.7315 N   0  0  0  0  0  0  0  0  0  0  0  0
  -36.4909   62.7501   31.5233 C   0  0  0  0  0  0  0  0  0  0  0  0
  -37.2059   60.7975   31.3773 H   0  0  0  0  0  0  0  0  0  0  0  0
  -36.3788   61.3658   29.9649 H   0  0  0  0  0  0  0  0  0  0  0  0
  -35.5815   64.5785   31.0950 H   0  0  0  0  0  0  0  0  0  0  0  0
  -35.4996   63.4174   29.8131 H   0  0  0  0  0  0  0  0  0  0  0  0
  -36.6161   63.9765   32.9669 H   0  0  0  0  0  0  0  0  0  0  0  0
  1  4  1  0  0  0
  1  5  1  0  0  0
  1  6  1  0  0  0
  2  4  1  0  0  0
  2  7  1  0  0  0
  2  8  1  0  0  0
  3  4  2  0  0  0
  3  9  1  0  0  0
M  END
> <minimizedAffinity>
-2.83955

$$$$
3520


  9  8  0  0  0  0  0  0  0  0999 V2000
  -35.8184   63.6553   30.7495 N   0  0  0  0  0  0  0  0  0  0  0  0
  -36.6925   61.5368   30.8871 N   0  0  0  0  0  0  0  0  0  0  0  0
  -36.8549   62.9640   32.7446 N   0  0  0  0  0  0  0  0  0  0  0  0
  -36.4736   62.7317   31.5209 C   0  0  0  0  0  0  0  0  0  0  0  0
  -35.5992   64.5784   31.1082 H   0  0  0  0  0  0  0  0  0  0  0  0
  -35.5344   63.4457   29.7987 H   0  0  0  0  0  0  0  0  0  0  0  0
  -37.1679   60.7713   31.3523 H   0  0  0  0  0  0  0  0  0  0  0  0
  -36.3846   61.3806   29.9335 H   0  0  0  0  0  0  0  0  0  0  0  0
  -37.3201   62.1247   33.1078 H   0  0  0  0  0  0  0  0  0  0  0  0
  1  4  1  0  0  0
  1  5  1  0  0  0
  1  6  1  0  0  0
  2  4  1  0  0  0
  2  7  1  0  0  0
  2  8  1  0  0  0
  3  4  2  0  0  0
  3  9  1  0  0  0
M  END
> <minimizedAffinity>
-2.83610

$$$$
3520


  9  8  0  0  0  0  0  0  0  0999 V2000
  -34.2898   73.0264   30.2869 N   0  0  0  0  0  0  0  0  0  0  0  0
  -33.5262   70.8825   30.5902 N   0  0  0  0  0  0  0  0  0  0  0  0
  -32.3184   72.6690   31.5194 N   0  0  0  0  0  0  0  0  0  0  0  0
  -33.3287   72.2165   30.8326 C   0  0  0  0  0  0  0  0  0  0  0  0
  -34.2528   74.0338   30.3984 H   0  0  0  0  0  0  0  0  0  0  0  0
  -35.0659   72.6446   29.7573 H   0  0  0  0  0  0  0  0  0  0  0  0
  -32.8834   70.1809   30.9408 H   0  0  0  0  0  0  0  0  0  0  0  0
  -34.3209   70.5557   30.0514 H   0  0  0  0  0  0  0  0  0  0  0  0
  -31.7434   71.8738   31.8189 H   0  0  0  0  0  0  0  0  0  0  0  0
  1  4  1  0  0  0
  1  5  1  0  0  0
  1  6  1  0  0  0
  2  4  1  0  0  0
  2  7  1  0  0  0
  2  8  1  0  0  0
  3  4  2  0  0  0
  3  9  1  0  0  0
M  END
> <minimizedAffinity>
-2.64409

$$$$
3520


  9  8  0  0  0  0  0  0  0  0999 V2000
  -37.4117   68.1907   29.7426 N   0  0  0  0  0  0  0  0  0  0  0  0
  -39.2474   66.9496   30.3433 N   0  0  0  0  0  0  0  0  0  0  0  0
  -37.7342   66.0696   28.7782 N   0  0  0  0  0  0  0  0  0  0  0  0
  -38.1112   67.0236   29.5812 C   0  0  0  0  0  0  0  0  0  0  0  0
  -36.5524   68.3627   29.2319 H   0  0  0  0  0  0  0  0  0  0  0  0
  -37.7298   68.9156   30.3764 H   0  0  0  0  0  0  0  0  0  0  0  0
  -39.8519   66.1359   30.3129 H   0  0  0  0  0  0  0  0  0  0  0  0
  -39.5196   67.7069   30.9605 H   0  0  0  0  0  0  0  0  0  0  0  0
  -38.4177   65.3063   28.8325 H   0  0  0  0  0  0  0  0  0  0  0  0
  1  4  1  0  0  0
  1  5  1  0  0  0
  1  6  1  0  0  0
  2  4  1  0  0  0
  2  7  1  0  0  0
  2  8  1  0  0  0
  3  4  2  0  0  0
  3  9  1  0  0  0
M  END
> <minimizedAffinity>
-2.58165

$$$$
3520


  9  8  0  0  0  0  0  0  0  0999 V2000
  -34.9428   66.5351   38.8437 N   0  0  0  0  0  0  0  0  0  0  0  0
  -35.7207   68.6428   39.3162 N   0  0  0  0  0  0  0  0  0  0  0  0
  -37.2341   66.8480   39.2738 N   0  0  0  0  0  0  0  0  0  0  0  0
  -36.0252   67.3173   39.1504 C   0  0  0  0  0  0  0  0  0  0  0  0
  -35.0414   65.5363   38.6974 H   0  0  0  0  0  0  0  0  0  0  0  0
  -34.0126   66.9292   38.7550 H   0  0  0  0  0  0  0  0  0  0  0  0
  -36.4358   69.3246   39.5453 H   0  0  0  0  0  0  0  0  0  0  0  0
  -34.7709   68.9834   39.2137 H   0  0  0  0  0  0  0  0  0  0  0  0
  -37.8648   67.6237   39.5047 H   0  0  0  0  0  0  0  0  0  0  0  0
  1  4  1  0  0  0
  1  5  1  0  0  0
  1  6  1  0  0  0
  2  4  1  0  0  0
  2  7  1  0  0  0
  2  8  1  0  0  0
  3  4  2  0  0  0
  3  9  1  0  0  0
M  END
> <minimizedAffinity>
-2.56221

$$$$
3520


  9  8  0  0  0  0  0  0  0  0999 V2000
  -39.8789   60.5800   33.7098 N   0  0  0  0  0  0  0  0  0  0  0  0
  -38.2466   61.5375   35.0097 N   0  0  0  0  0  0  0  0  0  0  0  0
  -39.9936   60.3623   36.0491 N   0  0  0  0  0  0  0  0  0  0  0  0
  -39.4034   60.8041   34.9751 C   0  0  0  0  0  0  0  0  0  0  0  0
  -40.7288   60.0487   33.5546 H   0  0  0  0  0  0  0  0  0  0  0  0
  -39.3965   60.9362   32.8918 H   0  0  0  0  0  0  0  0  0  0  0  0
  -37.7950   61.7709   35.8873 H   0  0  0  0  0  0  0  0  0  0  0  0
  -37.8069   61.8708   34.1587 H   0  0  0  0  0  0  0  0  0  0  0  0
  -39.4495   60.6577   36.8672 H   0  0  0  0  0  0  0  0  0  0  0  0
  1  4  1  0  0  0
  1  5  1  0  0  0
  1  6  1  0  0  0
  2  4  1  0  0  0
  2  7  1  0  0  0
  2  8  1  0  0  0
  3  4  2  0  0  0
  3  9  1  0  0  0
M  END
> <minimizedAffinity>
-2.53456

$$$$
3520


  9  8  0  0  0  0  0  0  0  0999 V2000
  -38.4278   65.3242   32.5529 N   0  0  0  0  0  0  0  0  0  0  0  0
  -36.6868   64.0762   31.7267 N   0  0  0  0  0  0  0  0  0  0  0  0
  -37.8879   65.4703   30.2682 N   0  0  0  0  0  0  0  0  0  0  0  0
  -37.6790   64.9819   31.4576 C   0  0  0  0  0  0  0  0  0  0  0  0
  -39.1921   65.9870   32.4802 H   0  0  0  0  0  0  0  0  0  0  0  0
  -38.2406   64.9276   33.4674 H   0  0  0  0  0  0  0  0  0  0  0  0
  -36.0641   63.7429   30.9990 H   0  0  0  0  0  0  0  0  0  0  0  0
  -36.5453   63.7101   32.6619 H   0  0  0  0  0  0  0  0  0  0  0  0
  -37.2027   65.0635   29.6219 H   0  0  0  0  0  0  0  0  0  0  0  0
  1  4  1  0  0  0
  1  5  1  0  0  0
  1  6  1  0  0  0
  2  4  1  0  0  0
  2  7  1  0  0  0
  2  8  1  0  0  0
  3  4  2  0  0  0
  3  9  1  0  0  0
M  END
> <minimizedAffinity>
-2.52259

$$$$
3520


  9  8  0  0  0  0  0  0  0  0999 V2000
  -38.4157   60.3210   33.3001 N   0  0  0  0  0  0  0  0  0  0  0  0
  -39.4491   60.7154   35.3118 N   0  0  0  0  0  0  0  0  0  0  0  0
  -37.5433   61.9627   34.7411 N   0  0  0  0  0  0  0  0  0  0  0  0
  -38.4250   61.0449   34.4634 C   0  0  0  0  0  0  0  0  0  0  0  0
  -37.7059   60.4743   32.5920 H   0  0  0  0  0  0  0  0  0  0  0  0
  -39.1166   59.6127   33.1113 H   0  0  0  0  0  0  0  0  0  0  0  0
  -39.5647   61.1799   36.2060 H   0  0  0  0  0  0  0  0  0  0  0  0
  -40.1226   59.9959   35.0724 H   0  0  0  0  0  0  0  0  0  0  0  0
  -37.7613   62.3585   35.6623 H   0  0  0  0  0  0  0  0  0  0  0  0
  1  4  1  0  0  0
  1  5  1  0  0  0
  1  6  1  0  0  0
  2  4  1  0  0  0
  2  7  1  0  0  0
  2  8  1  0  0  0
  3  4  2  0  0  0
  3  9  1  0  0  0
M  END
> <minimizedAffinity>
-2.48176

$$$$
3520


  9  8  0  0  0  0  0  0  0  0999 V2000
  -37.6842   65.4647   31.7884 N   0  0  0  0  0  0  0  0  0  0  0  0
  -38.2734   63.2459   31.7690 N   0  0  0  0  0  0  0  0  0  0  0  0
  -36.0052   63.8253   31.9509 N   0  0  0  0  0  0  0  0  0  0  0  0
  -37.2585   64.1634   31.8415 C   0  0  0  0  0  0  0  0  0  0  0  0
  -37.0256   66.2348   31.8334 H   0  0  0  0  0  0  0  0  0  0  0  0
  -38.6677   65.6973   31.7039 H   0  0  0  0  0  0  0  0  0  0  0  0
  -38.0878   62.2493   31.7976 H   0  0  0  0  0  0  0  0  0  0  0  0
  -39.2418   63.5351   31.6833 H   0  0  0  0  0  0  0  0  0  0  0  0
  -35.9425   62.8014   31.9699 H   0  0  0  0  0  0  0  0  0  0  0  0
  1  4  1  0  0  0
  1  5  1  0  0  0
  1  6  1  0  0  0
  2  4  1  0  0  0
  2  7  1  0  0  0
  2  8  1  0  0  0
  3  4  2  0  0  0
  3  9  1  0  0  0
M  END
> <minimizedAffinity>
-2.47634

$$$$
3520


  9  8  0  0  0  0  0  0  0  0999 V2000
  -31.9719   72.9755   38.9416 N   0  0  0  0  0  0  0  0  0  0  0  0
  -33.8064   72.2133   37.7909 N   0  0  0  0  0  0  0  0  0  0  0  0
  -31.7206   72.2639   36.7137 N   0  0  0  0  0  0  0  0  0  0  0  0
  -32.4617   72.4743   37.7642 C   0  0  0  0  0  0  0  0  0  0  0  0
  -30.9900   73.2079   39.0453 H   0  0  0  0  0  0  0  0  0  0  0  0
  -32.5737   73.1279   39.7436 H   0  0  0  0  0  0  0  0  0  0  0  0
  -34.2883   71.8397   36.9805 H   0  0  0  0  0  0  0  0  0  0  0  0
  -34.3618   72.3868   38.6216 H   0  0  0  0  0  0  0  0  0  0  0  0
  -32.3129   71.8887   35.9647 H   0  0  0  0  0  0  0  0  0  0  0  0
  1  4  1  0  0  0
  1  5  1  0  0  0
  1  6  1  0  0  0
  2  4  1  0  0  0
  2  7  1  0  0  0
  2  8  1  0  0  0
  3  4  2  0  0  0
  3  9  1  0  0  0
M  END
> <minimizedAffinity>
-2.46943

$$$$
3520


  9  8  0  0  0  0  0  0  0  0999 V2000
  -34.7326   67.1961   40.6166 N   0  0  0  0  0  0  0  0  0  0  0  0
  -34.2393   69.1286   39.4795 N   0  0  0  0  0  0  0  0  0  0  0  0
  -34.9811   67.2524   38.2782 N   0  0  0  0  0  0  0  0  0  0  0  0
  -34.6669   67.8292   39.4032 C   0  0  0  0  0  0  0  0  0  0  0  0
  -35.0357   66.2309   40.6896 H   0  0  0  0  0  0  0  0  0  0  0  0
  -34.4821   67.6718   41.4765 H   0  0  0  0  0  0  0  0  0  0  0  0
  -34.1480   69.7044   38.6497 H   0  0  0  0  0  0  0  0  0  0  0  0
  -33.9998   69.5545   40.3683 H   0  0  0  0  0  0  0  0  0  0  0  0
  -34.8506   67.9271   37.5164 H   0  0  0  0  0  0  0  0  0  0  0  0
  1  4  1  0  0  0
  1  5  1  0  0  0
  1  6  1  0  0  0
  2  4  1  0  0  0
  2  7  1  0  0  0
  2  8  1  0  0  0
  3  4  2  0  0  0
  3  9  1  0  0  0
M  END
> <minimizedAffinity>
-2.46723

$$$$
3520


  9  8  0  0  0  0  0  0  0  0999 V2000
  -39.3127   70.7755   27.9299 N   0  0  0  0  0  0  0  0  0  0  0  0
  -37.7802   72.4610   27.6438 N   0  0  0  0  0  0  0  0  0  0  0  0
  -37.1514   70.2500   27.1646 N   0  0  0  0  0  0  0  0  0  0  0  0
  -38.0385   71.1181   27.5601 C   0  0  0  0  0  0  0  0  0  0  0  0
  -39.6237   69.8103   27.9100 H   0  0  0  0  0  0  0  0  0  0  0  0
  -39.9822   71.4744   28.2328 H   0  0  0  0  0  0  0  0  0  0  0  0
  -36.8726   72.8408   27.3977 H   0  0  0  0  0  0  0  0  0  0  0  0
  -38.4884   73.1166   27.9557 H   0  0  0  0  0  0  0  0  0  0  0  0
  -36.2814   70.7474   26.9449 H   0  0  0  0  0  0  0  0  0  0  0  0
  1  4  1  0  0  0
  1  5  1  0  0  0
  1  6  1  0  0  0
  2  4  1  0  0  0
  2  7  1  0  0  0
  2  8  1  0  0  0
  3  4  2  0  0  0
  3  9  1  0  0  0
M  END
> <minimizedAffinity>
-2.45317

$$$$
3520


  9  8  0  0  0  0  0  0  0  0999 V2000
  -38.0760   60.4890   33.0687 N   0  0  0  0  0  0  0  0  0  0  0  0
  -36.8009   62.3337   32.5767 N   0  0  0  0  0  0  0  0  0  0  0  0
  -37.4707   61.9654   34.7969 N   0  0  0  0  0  0  0  0  0  0  0  0
  -37.4510   61.6123   33.5432 C   0  0  0  0  0  0  0  0  0  0  0  0
  -38.5906   59.8729   33.6887 H   0  0  0  0  0  0  0  0  0  0  0  0
  -38.0424   60.2391   32.0864 H   0  0  0  0  0  0  0  0  0  0  0  0
  -36.3002   63.1866   32.8012 H   0  0  0  0  0  0  0  0  0  0  0  0
  -36.8013   62.0376   31.6067 H   0  0  0  0  0  0  0  0  0  0  0  0
  -36.9356   62.8347   34.9010 H   0  0  0  0  0  0  0  0  0  0  0  0
  1  4  1  0  0  0
  1  5  1  0  0  0
  1  6  1  0  0  0
  2  4  1  0  0  0
  2  7  1  0  0  0
  2  8  1  0  0  0
  3  4  2  0  0  0
  3  9  1  0  0  0
M  END
> <minimizedAffinity>
-2.42263

$$$$
3520


  9  8  0  0  0  0  0  0  0  0999 V2000
  -39.8039   65.5472   30.7288 N   0  0  0  0  0  0  0  0  0  0  0  0
  -38.0326   65.4194   32.1838 N   0  0  0  0  0  0  0  0  0  0  0  0
  -37.6110   65.6848   29.8892 N   0  0  0  0  0  0  0  0  0  0  0  0
  -38.4425   65.5569   30.8837 C   0  0  0  0  0  0  0  0  0  0  0  0
  -40.2288   65.6417   29.8127 H   0  0  0  0  0  0  0  0  0  0  0  0
  -40.4267   65.4468   31.5230 H   0  0  0  0  0  0  0  0  0  0  0  0
  -37.0487   65.4110   32.4295 H   0  0  0  0  0  0  0  0  0  0  0  0
  -38.7005   65.3205   32.9406 H   0  0  0  0  0  0  0  0  0  0  0  0
  -36.6536   65.6625   30.2576 H   0  0  0  0  0  0  0  0  0  0  0  0
  1  4  1  0  0  0
  1  5  1  0  0  0
  1  6  1  0  0  0
  2  4  1  0  0  0
  2  7  1  0  0  0
  2  8  1  0  0  0
  3  4  2  0  0  0
  3  9  1  0  0  0
M  END
> <minimizedAffinity>
-2.41534

$$$$
3520


  9  8  0  0  0  0  0  0  0  0999 V2000
  -38.4892   64.0240   32.7596 N   0  0  0  0  0  0  0  0  0  0  0  0
  -38.4203   66.2395   32.1617 N   0  0  0  0  0  0  0  0  0  0  0  0
  -37.3220   64.6576   30.8183 N   0  0  0  0  0  0  0  0  0  0  0  0
  -38.0416   64.9574   31.8619 C   0  0  0  0  0  0  0  0  0  0  0  0
  -38.2737   63.0396   32.6450 H   0  0  0  0  0  0  0  0  0  0  0  0
  -39.0491   64.2877   33.5631 H   0  0  0  0  0  0  0  0  0  0  0  0
  -38.1513   67.0210   31.5739 H   0  0  0  0  0  0  0  0  0  0  0  0
  -38.9804   66.4469   32.9814 H   0  0  0  0  0  0  0  0  0  0  0  0
  -37.1135   65.5212   30.3050 H   0  0  0  0  0  0  0  0  0  0  0  0
  1  4  1  0  0  0
  1  5  1  0  0  0
  1  6  1  0  0  0
  2  4  1  0  0  0
  2  7  1  0  0  0
  2  8  1  0  0  0
  3  4  2  0  0  0
  3  9  1  0  0  0
M  END
> <minimizedAffinity>
-2.41284

$$$$
3520


  9  8  0  0  0  0  0  0  0  0999 V2000
  -38.1399   65.6430   32.1210 N   0  0  0  0  0  0  0  0  0  0  0  0
  -39.8762   65.6403   30.6189 N   0  0  0  0  0  0  0  0  0  0  0  0
  -37.6738   65.8032   29.8210 N   0  0  0  0  0  0  0  0  0  0  0  0
  -38.5202   65.7006   30.8059 C   0  0  0  0  0  0  0  0  0  0  0  0
  -37.1617   65.6785   32.3868 H   0  0  0  0  0  0  0  0  0  0  0  0
  -38.8225   65.5622   32.8667 H   0  0  0  0  0  0  0  0  0  0  0  0
  -40.2835   65.6741   29.6907 H   0  0  0  0  0  0  0  0  0  0  0  0
  -40.5145   65.5614   31.4030 H   0  0  0  0  0  0  0  0  0  0  0  0
  -38.1982   65.8276   28.9394 H   0  0  0  0  0  0  0  0  0  0  0  0
  1  4  1  0  0  0
  1  5  1  0  0  0
  1  6  1  0  0  0
  2  4  1  0  0  0
  2  7  1  0  0  0
  2  8  1  0  0  0
  3  4  2  0  0  0
  3  9  1  0  0  0
M  END
> <minimizedAffinity>
-2.40233

$$$$
3520


  9  8  0  0  0  0  0  0  0  0999 V2000
  -37.4224   61.0670   32.0183 N   0  0  0  0  0  0  0  0  0  0  0  0
  -37.0708   61.3074   34.2743 N   0  0  0  0  0  0  0  0  0  0  0  0
  -37.1853   63.2249   32.9239 N   0  0  0  0  0  0  0  0  0  0  0  0
  -37.2245   61.9303   33.0637 C   0  0  0  0  0  0  0  0  0  0  0  0
  -37.5497   61.4088   31.0719 H   0  0  0  0  0  0  0  0  0  0  0  0
  -37.4490   60.0628   32.1584 H   0  0  0  0  0  0  0  0  0  0  0  0
  -36.9173   61.8371   35.1254 H   0  0  0  0  0  0  0  0  0  0  0  0
  -37.1045   60.2971   34.3565 H   0  0  0  0  0  0  0  0  0  0  0  0
  -37.0266   63.6493   33.8444 H   0  0  0  0  0  0  0  0  0  0  0  0
  1  4  1  0  0  0
  1  5  1  0  0  0
  1  6  1  0  0  0
  2  4  1  0  0  0
  2  7  1  0  0  0
  2  8  1  0  0  0
  3  4  2  0  0  0
  3  9  1  0  0  0
M  END
> <minimizedAffinity>
-2.38905

$$$$
3520


  9  8  0  0  0  0  0  0  0  0999 V2000
  -36.2452   70.0168   29.3006 N   0  0  0  0  0  0  0  0  0  0  0  0
  -34.5664   70.7038   30.7079 N   0  0  0  0  0  0  0  0  0  0  0  0
  -36.7128   70.3317   31.5843 N   0  0  0  0  0  0  0  0  0  0  0  0
  -35.8836   70.3494   30.5797 C   0  0  0  0  0  0  0  0  0  0  0  0
  -37.1946   69.7367   29.0793 H   0  0  0  0  0  0  0  0  0  0  0  0
  -35.5766   70.0392   28.5383 H   0  0  0  0  0  0  0  0  0  0  0  0
  -34.1762   70.9717   31.6048 H   0  0  0  0  0  0  0  0  0  0  0  0
  -33.9411   70.7104   29.9094 H   0  0  0  0  0  0  0  0  0  0  0  0
  -36.2084   70.6182   32.4305 H   0  0  0  0  0  0  0  0  0  0  0  0
  1  4  1  0  0  0
  1  5  1  0  0  0
  1  6  1  0  0  0
  2  4  1  0  0  0
  2  7  1  0  0  0
  2  8  1  0  0  0
  3  4  2  0  0  0
  3  9  1  0  0  0
M  END
> <minimizedAffinity>
-2.38602

$$$$
3520


  9  8  0  0  0  0  0  0  0  0999 V2000
  -33.6819   68.2793   40.6823 N   0  0  0  0  0  0  0  0  0  0  0  0
  -35.2666   66.8814   39.7847 N   0  0  0  0  0  0  0  0  0  0  0  0
  -33.8247   68.0492   38.3457 N   0  0  0  0  0  0  0  0  0  0  0  0
  -34.2363   67.7523   39.5455 C   0  0  0  0  0  0  0  0  0  0  0  0
  -32.9110   68.9367   40.6345 H   0  0  0  0  0  0  0  0  0  0  0  0
  -34.0235   68.0284   41.6036 H   0  0  0  0  0  0  0  0  0  0  0  0
  -35.7596   66.4248   39.0252 H   0  0  0  0  0  0  0  0  0  0  0  0
  -35.5688   66.6675   40.7289 H   0  0  0  0  0  0  0  0  0  0  0  0
  -34.3932   67.5311   37.6667 H   0  0  0  0  0  0  0  0  0  0  0  0
  1  4  1  0  0  0
  1  5  1  0  0  0
  1  6  1  0  0  0
  2  4  1  0  0  0
  2  7  1  0  0  0
  2  8  1  0  0  0
  3  4  2  0  0  0
  3  9  1  0  0  0
M  END
> <minimizedAffinity>
-2.37651

$$$$
3520


  9  8  0  0  0  0  0  0  0  0999 V2000
  -38.1711   61.9344   35.0573 N   0  0  0  0  0  0  0  0  0  0  0  0
  -38.0496   60.3452   33.4049 N   0  0  0  0  0  0  0  0  0  0  0  0
  -36.8412   62.3436   33.1607 N   0  0  0  0  0  0  0  0  0  0  0  0
  -37.6475   61.5799   33.8417 C   0  0  0  0  0  0  0  0  0  0  0  0
  -37.9467   62.8259   35.4859 H   0  0  0  0  0  0  0  0  0  0  0  0
  -38.7961   61.3178   35.5649 H   0  0  0  0  0  0  0  0  0  0  0  0
  -37.7312   59.9688   32.5186 H   0  0  0  0  0  0  0  0  0  0  0  0
  -38.6791   59.7699   33.9538 H   0  0  0  0  0  0  0  0  0  0  0  0
  -36.5889   61.8609   32.2912 H   0  0  0  0  0  0  0  0  0  0  0  0
  1  4  1  0  0  0
  1  5  1  0  0  0
  1  6  1  0  0  0
  2  4  1  0  0  0
  2  7  1  0  0  0
  2  8  1  0  0  0
  3  4  2  0  0  0
  3  9  1  0  0  0
M  END
> <minimizedAffinity>
-2.36334

$$$$
3520


  9  8  0  0  0  0  0  0  0  0999 V2000
  -41.0933   60.2167   33.9647 N   0  0  0  0  0  0  0  0  0  0  0  0
  -42.3427   60.0448   35.8832 N   0  0  0  0  0  0  0  0  0  0  0  0
  -40.0248   60.3785   36.0540 N   0  0  0  0  0  0  0  0  0  0  0  0
  -41.0996   60.2212   35.3349 C   0  0  0  0  0  0  0  0  0  0  0  0
  -40.2320   60.3387   33.4432 H   0  0  0  0  0  0  0  0  0  0  0  0
  -41.9471   60.0928   33.4316 H   0  0  0  0  0  0  0  0  0  0  0  0
  -42.4797   60.0287   36.8879 H   0  0  0  0  0  0  0  0  0  0  0  0
  -43.1643   59.9235   35.3010 H   0  0  0  0  0  0  0  0  0  0  0  0
  -40.2861   60.3449   37.0456 H   0  0  0  0  0  0  0  0  0  0  0  0
  1  4  1  0  0  0
  1  5  1  0  0  0
  1  6  1  0  0  0
  2  4  1  0  0  0
  2  7  1  0  0  0
  2  8  1  0  0  0
  3  4  2  0  0  0
  3  9  1  0  0  0
M  END
> <minimizedAffinity>
-2.36260

$$$$
3520


  9  8  0  0  0  0  0  0  0  0999 V2000
  -35.3842   70.4206   30.0007 N   0  0  0  0  0  0  0  0  0  0  0  0
  -34.9728   70.8684   27.7868 N   0  0  0  0  0  0  0  0  0  0  0  0
  -36.9316   69.7152   28.3757 N   0  0  0  0  0  0  0  0  0  0  0  0
  -35.8183   70.3052   28.7062 C   0  0  0  0  0  0  0  0  0  0  0  0
  -35.9247   70.0429   30.7714 H   0  0  0  0  0  0  0  0  0  0  0  0
  -34.5125   70.8867   30.2275 H   0  0  0  0  0  0  0  0  0  0  0  0
  -35.1821   70.8484   26.7947 H   0  0  0  0  0  0  0  0  0  0  0  0
  -34.1108   71.3215   28.0700 H   0  0  0  0  0  0  0  0  0  0  0  0
  -37.0348   69.7578   27.3557 H   0  0  0  0  0  0  0  0  0  0  0  0
  1  4  1  0  0  0
  1  5  1  0  0  0
  1  6  1  0  0  0
  2  4  1  0  0  0
  2  7  1  0  0  0
  2  8  1  0  0  0
  3  4  2  0  0  0
  3  9  1  0  0  0
M  END
> <minimizedAffinity>
-2.33364

$$$$
3520


  9  8  0  0  0  0  0  0  0  0999 V2000
  -41.4501   60.3087   33.9592 N   0  0  0  0  0  0  0  0  0  0  0  0
  -40.1978   60.2372   35.8821 N   0  0  0  0  0  0  0  0  0  0  0  0
  -42.5255   59.9625   36.0224 N   0  0  0  0  0  0  0  0  0  0  0  0
  -41.4454   60.1598   35.3213 C   0  0  0  0  0  0  0  0  0  0  0  0
  -42.3143   60.2702   33.4298 H   0  0  0  0  0  0  0  0  0  0  0  0
  -40.5922   60.4603   33.4400 H   0  0  0  0  0  0  0  0  0  0  0  0
  -40.0615   60.1430   36.8827 H   0  0  0  0  0  0  0  0  0  0  0  0
  -39.3721   60.3924   35.3140 H   0  0  0  0  0  0  0  0  0  0  0  0
  -42.2643   59.8831   37.0114 H   0  0  0  0  0  0  0  0  0  0  0  0
  1  4  1  0  0  0
  1  5  1  0  0  0
  1  6  1  0  0  0
  2  4  1  0  0  0
  2  7  1  0  0  0
  2  8  1  0  0  0
  3  4  2  0  0  0
  3  9  1  0  0  0
M  END
> <minimizedAffinity>
-2.30390

$$$$
3520


  9  8  0  0  0  0  0  0  0  0999 V2000
  -31.1407   72.2371   30.0951 N   0  0  0  0  0  0  0  0  0  0  0  0
  -31.0346   69.9479   30.2344 N   0  0  0  0  0  0  0  0  0  0  0  0
  -32.8302   70.9424   29.0940 N   0  0  0  0  0  0  0  0  0  0  0  0
  -31.7234   71.0392   29.7741 C   0  0  0  0  0  0  0  0  0  0  0  0
  -31.5570   73.1168   29.8094 H   0  0  0  0  0  0  0  0  0  0  0  0
  -30.2774   72.2809   30.6255 H   0  0  0  0  0  0  0  0  0  0  0  0
  -31.3637   69.0042   30.0622 H   0  0  0  0  0  0  0  0  0  0  0  0
  -30.1750   70.0503   30.7628 H   0  0  0  0  0  0  0  0  0  0  0  0
  -33.0611   69.9488   28.9836 H   0  0  0  0  0  0  0  0  0  0  0  0
  1  4  1  0  0  0
  1  5  1  0  0  0
  1  6  1  0  0  0
  2  4  1  0  0  0
  2  7  1  0  0  0
  2  8  1  0  0  0
  3  4  2  0  0  0
  3  9  1  0  0  0
M  END
> <minimizedAffinity>
-2.27319

$$$$
3520


  9  8  0  0  0  0  0  0  0  0999 V2000
  -32.8495   66.1211   43.8461 N   0  0  0  0  0  0  0  0  0  0  0  0
  -33.5272   68.2590   44.3375 N   0  0  0  0  0  0  0  0  0  0  0  0
  -32.2403   67.8816   42.4100 N   0  0  0  0  0  0  0  0  0  0  0  0
  -32.8421   67.4410   43.4780 C   0  0  0  0  0  0  0  0  0  0  0  0
  -32.3763   65.4180   43.2891 H   0  0  0  0  0  0  0  0  0  0  0  0
  -33.3280   65.8075   44.6836 H   0  0  0  0  0  0  0  0  0  0  0  0
  -33.5948   69.2578   44.1752 H   0  0  0  0  0  0  0  0  0  0  0  0
  -33.9868   67.8910   45.1633 H   0  0  0  0  0  0  0  0  0  0  0  0
  -32.3773   68.8968   42.3520 H   0  0  0  0  0  0  0  0  0  0  0  0
  1  4  1  0  0  0
  1  5  1  0  0  0
  1  6  1  0  0  0
  2  4  1  0  0  0
  2  7  1  0  0  0
  2  8  1  0  0  0
  3  4  2  0  0  0
  3  9  1  0  0  0
M  END
> <minimizedAffinity>
-2.27199

$$$$
3520


  9  8  0  0  0  0  0  0  0  0999 V2000
  -40.3646   61.3549   33.9277 N   0  0  0  0  0  0  0  0  0  0  0  0
  -40.0658   60.0777   35.8119 N   0  0  0  0  0  0  0  0  0  0  0  0
  -38.3872   61.5928   35.1792 N   0  0  0  0  0  0  0  0  0  0  0  0
  -39.5486   61.0368   34.9814 C   0  0  0  0  0  0  0  0  0  0  0  0
  -40.0913   62.0521   33.2437 H   0  0  0  0  0  0  0  0  0  0  0  0
  -41.2648   60.9053   33.8003 H   0  0  0  0  0  0  0  0  0  0  0  0
  -39.5573   59.7553   36.6280 H   0  0  0  0  0  0  0  0  0  0  0  0
  -40.9727   59.6594   35.6354 H   0  0  0  0  0  0  0  0  0  0  0  0
  -37.9713   61.1904   36.0264 H   0  0  0  0  0  0  0  0  0  0  0  0
  1  4  1  0  0  0
  1  5  1  0  0  0
  1  6  1  0  0  0
  2  4  1  0  0  0
  2  7  1  0  0  0
  2  8  1  0  0  0
  3  4  2  0  0  0
  3  9  1  0  0  0
M  END
> <minimizedAffinity>
-2.26652

$$$$
3520


  9  8  0  0  0  0  0  0  0  0999 V2000
  -36.1172   70.3083   28.1440 N   0  0  0  0  0  0  0  0  0  0  0  0
  -34.0991   70.9715   27.2732 N   0  0  0  0  0  0  0  0  0  0  0  0
  -34.3404   70.8055   29.6030 N   0  0  0  0  0  0  0  0  0  0  0  0
  -34.8294   70.6999   28.4002 C   0  0  0  0  0  0  0  0  0  0  0  0
  -36.7562   70.0794   28.8977 H   0  0  0  0  0  0  0  0  0  0  0  0
  -36.4697   70.2344   27.1959 H   0  0  0  0  0  0  0  0  0  0  0  0
  -33.1319   71.2712   27.3299 H   0  0  0  0  0  0  0  0  0  0  0  0
  -34.5037   70.8823   26.3475 H   0  0  0  0  0  0  0  0  0  0  0  0
  -33.3639   71.1126   29.5339 H   0  0  0  0  0  0  0  0  0  0  0  0
  1  4  1  0  0  0
  1  5  1  0  0  0
  1  6  1  0  0  0
  2  4  1  0  0  0
  2  7  1  0  0  0
  2  8  1  0  0  0
  3  4  2  0  0  0
  3  9  1  0  0  0
M  END
> <minimizedAffinity>
-2.25877

$$$$
3520


  9  8  0  0  0  0  0  0  0  0999 V2000
  -41.2633   62.1778   35.9335 N   0  0  0  0  0  0  0  0  0  0  0  0
  -42.2709   60.1158   35.8726 N   0  0  0  0  0  0  0  0  0  0  0  0
  -39.9292   60.2413   35.9911 N   0  0  0  0  0  0  0  0  0  0  0  0
  -41.0960   60.8178   35.9352 C   0  0  0  0  0  0  0  0  0  0  0  0
  -40.4672   62.8048   35.9770 H   0  0  0  0  0  0  0  0  0  0  0  0
  -42.1852   62.5980   35.8901 H   0  0  0  0  0  0  0  0  0  0  0  0
  -42.2808   59.1017   35.8668 H   0  0  0  0  0  0  0  0  0  0  0  0
  -43.1671   60.5887   35.8290 H   0  0  0  0  0  0  0  0  0  0  0  0
  -40.0652   59.2244   35.9793 H   0  0  0  0  0  0  0  0  0  0  0  0
  1  4  1  0  0  0
  1  5  1  0  0  0
  1  6  1  0  0  0
  2  4  1  0  0  0
  2  7  1  0  0  0
  2  8  1  0  0  0
  3  4  2  0  0  0
  3  9  1  0  0  0
M  END
> <minimizedAffinity>
-2.25362

$$$$
3520


  9  8  0  0  0  0  0  0  0  0999 V2000
  -41.4762   60.2178   33.7984 N   0  0  0  0  0  0  0  0  0  0  0  0
  -42.9045   59.8758   35.5631 N   0  0  0  0  0  0  0  0  0  0  0  0
  -43.7861   60.0369   33.3928 N   0  0  0  0  0  0  0  0  0  0  0  0
  -42.7715   60.0434   34.2098 C   0  0  0  0  0  0  0  0  0  0  0  0
  -41.2498   60.3516   32.8189 H   0  0  0  0  0  0  0  0  0  0  0  0
  -40.7062   60.2172   34.4585 H   0  0  0  0  0  0  0  0  0  0  0  0
  -43.8132   59.7379   35.9917 H   0  0  0  0  0  0  0  0  0  0  0  0
  -42.0982   59.8857   36.1783 H   0  0  0  0  0  0  0  0  0  0  0  0
  -44.6438   59.8905   33.9365 H   0  0  0  0  0  0  0  0  0  0  0  0
  1  4  1  0  0  0
  1  5  1  0  0  0
  1  6  1  0  0  0
  2  4  1  0  0  0
  2  7  1  0  0  0
  2  8  1  0  0  0
  3  4  2  0  0  0
  3  9  1  0  0  0
M  END
> <minimizedAffinity>
-2.25050

$$$$
3520


  9  8  0  0  0  0  0  0  0  0999 V2000
  -39.5810   66.7993   30.6261 N   0  0  0  0  0  0  0  0  0  0  0  0
  -37.8375   66.6340   29.1416 N   0  0  0  0  0  0  0  0  0  0  0  0
  -38.0421   65.0343   30.8482 N   0  0  0  0  0  0  0  0  0  0  0  0
  -38.4670   66.1031   30.2366 C   0  0  0  0  0  0  0  0  0  0  0  0
  -40.1324   66.5037   31.4244 H   0  0  0  0  0  0  0  0  0  0  0  0
  -39.8882   67.6283   30.1291 H   0  0  0  0  0  0  0  0  0  0  0  0
  -37.0007   66.2101   28.7560 H   0  0  0  0  0  0  0  0  0  0  0  0
  -38.1881   67.4682   28.6836 H   0  0  0  0  0  0  0  0  0  0  0  0
  -37.1978   64.6980   30.3719 H   0  0  0  0  0  0  0  0  0  0  0  0
  1  4  1  0  0  0
  1  5  1  0  0  0
  1  6  1  0  0  0
  2  4  1  0  0  0
  2  7  1  0  0  0
  2  8  1  0  0  0
  3  4  2  0  0  0
  3  9  1  0  0  0
M  END
> <minimizedAffinity>
-2.17815

$$$$
3520


  9  8  0  0  0  0  0  0  0  0999 V2000
  -37.2388   64.6205   31.2691 N   0  0  0  0  0  0  0  0  0  0  0  0
  -38.7391   64.1776   32.9495 N   0  0  0  0  0  0  0  0  0  0  0  0
  -38.5032   66.3830   32.1789 N   0  0  0  0  0  0  0  0  0  0  0  0
  -38.1756   65.1230   32.1336 C   0  0  0  0  0  0  0  0  0  0  0  0
  -36.7517   65.2229   30.6145 H   0  0  0  0  0  0  0  0  0  0  0  0
  -37.0051   63.6337   31.2564 H   0  0  0  0  0  0  0  0  0  0  0  0
  -39.4460   64.4238   33.6338 H   0  0  0  0  0  0  0  0  0  0  0  0
  -38.4659   63.2024   32.8951 H   0  0  0  0  0  0  0  0  0  0  0  0
  -39.2202   66.5094   32.9018 H   0  0  0  0  0  0  0  0  0  0  0  0
  1  4  1  0  0  0
  1  5  1  0  0  0
  1  6  1  0  0  0
  2  4  1  0  0  0
  2  7  1  0  0  0
  2  8  1  0  0  0
  3  4  2  0  0  0
  3  9  1  0  0  0
M  END
> <minimizedAffinity>
-2.17054

$$$$
3520


  9  8  0  0  0  0  0  0  0  0999 V2000
  -40.3504   60.3938   36.1025 N   0  0  0  0  0  0  0  0  0  0  0  0
  -42.5885   59.9579   35.8349 N   0  0  0  0  0  0  0  0  0  0  0  0
  -41.2562   60.3081   33.9334 N   0  0  0  0  0  0  0  0  0  0  0  0
  -41.3902   60.2243   35.2264 C   0  0  0  0  0  0  0  0  0  0  0  0
  -39.4129   60.5955   35.7720 H   0  0  0  0  0  0  0  0  0  0  0  0
  -40.4853   60.3217   37.1051 H   0  0  0  0  0  0  0  0  0  0  0  0
  -43.4346   59.8129   35.2948 H   0  0  0  0  0  0  0  0  0  0  0  0
  -42.6667   59.8988   36.8443 H   0  0  0  0  0  0  0  0  0  0  0  0
  -42.1706   60.1443   33.4979 H   0  0  0  0  0  0  0  0  0  0  0  0
  1  4  1  0  0  0
  1  5  1  0  0  0
  1  6  1  0  0  0
  2  4  1  0  0  0
  2  7  1  0  0  0
  2  8  1  0  0  0
  3  4  2  0  0  0
  3  9  1  0  0  0
M  END
> <minimizedAffinity>
-2.16513

$$$$
3520


  9  8  0  0  0  0  0  0  0  0999 V2000
  -36.9797   69.7528   28.0288 N   0  0  0  0  0  0  0  0  0  0  0  0
  -39.1022   69.5905   28.8886 N   0  0  0  0  0  0  0  0  0  0  0  0
  -37.4332   68.1414   29.6813 N   0  0  0  0  0  0  0  0  0  0  0  0
  -37.8179   69.1135   28.9041 C   0  0  0  0  0  0  0  0  0  0  0  0
  -36.0035   69.4890   27.9490 H   0  0  0  0  0  0  0  0  0  0  0  0
  -37.3080   70.5077   27.4365 H   0  0  0  0  0  0  0  0  0  0  0  0
  -39.8183   69.1997   29.4912 H   0  0  0  0  0  0  0  0  0  0  0  0
  -39.3768   70.3483   28.2731 H   0  0  0  0  0  0  0  0  0  0  0  0
  -38.2363   67.8305   30.2391 H   0  0  0  0  0  0  0  0  0  0  0  0
  1  4  1  0  0  0
  1  5  1  0  0  0
  1  6  1  0  0  0
  2  4  1  0  0  0
  2  7  1  0  0  0
  2  8  1  0  0  0
  3  4  2  0  0  0
  3  9  1  0  0  0
M  END
> <minimizedAffinity>
-2.16404

$$$$
3520


  9  8  0  0  0  0  0  0  0  0999 V2000
  -40.2670   71.8449   29.1198 N   0  0  0  0  0  0  0  0  0  0  0  0
  -39.7898   69.6073   29.3109 N   0  0  0  0  0  0  0  0  0  0  0  0
  -38.8950   70.8176   27.5087 N   0  0  0  0  0  0  0  0  0  0  0  0
  -39.6153   70.7609   28.5927 C   0  0  0  0  0  0  0  0  0  0  0  0
  -40.2134   72.7560   28.6773 H   0  0  0  0  0  0  0  0  0  0  0  0
  -40.8202   71.7701   29.9665 H   0  0  0  0  0  0  0  0  0  0  0  0
  -39.3587   68.7355   29.0233 H   0  0  0  0  0  0  0  0  0  0  0  0
  -40.3566   69.5893   30.1517 H   0  0  0  0  0  0  0  0  0  0  0  0
  -38.5135   69.8842   27.3196 H   0  0  0  0  0  0  0  0  0  0  0  0
  1  4  1  0  0  0
  1  5  1  0  0  0
  1  6  1  0  0  0
  2  4  1  0  0  0
  2  7  1  0  0  0
  2  8  1  0  0  0
  3  4  2  0  0  0
  3  9  1  0  0  0
M  END
> <minimizedAffinity>
-2.15904

$$$$
3520


  9  8  0  0  0  0  0  0  0  0999 V2000
  -34.8135   72.6791   37.6920 N   0  0  0  0  0  0  0  0  0  0  0  0
  -32.9457   73.4382   38.7903 N   0  0  0  0  0  0  0  0  0  0  0  0
  -32.7387   71.6486   37.2843 N   0  0  0  0  0  0  0  0  0  0  0  0
  -33.4646   72.5438   37.8914 C   0  0  0  0  0  0  0  0  0  0  0  0
  -35.3125   72.0742   37.0488 H   0  0  0  0  0  0  0  0  0  0  0  0
  -35.3525   73.3868   38.1790 H   0  0  0  0  0  0  0  0  0  0  0  0
  -31.9589   73.4399   39.0243 H   0  0  0  0  0  0  0  0  0  0  0  0
  -33.5328   74.1253   39.2506 H   0  0  0  0  0  0  0  0  0  0  0  0
  -31.7668   71.7470   37.5981 H   0  0  0  0  0  0  0  0  0  0  0  0
  1  4  1  0  0  0
  1  5  1  0  0  0
  1  6  1  0  0  0
  2  4  1  0  0  0
  2  7  1  0  0  0
  2  8  1  0  0  0
  3  4  2  0  0  0
  3  9  1  0  0  0
M  END
> <minimizedAffinity>
-2.15236

$$$$
3520


  9  8  0  0  0  0  0  0  0  0999 V2000
  -39.2567   68.0453   30.2336 N   0  0  0  0  0  0  0  0  0  0  0  0
  -37.7857   66.5295   29.3339 N   0  0  0  0  0  0  0  0  0  0  0  0
  -37.4773   68.8170   28.9028 N   0  0  0  0  0  0  0  0  0  0  0  0
  -38.1413   67.8464   29.4630 C   0  0  0  0  0  0  0  0  0  0  0  0
  -39.6184   68.9776   30.4030 H   0  0  0  0  0  0  0  0  0  0  0  0
  -39.7528   67.2690   30.6578 H   0  0  0  0  0  0  0  0  0  0  0  0
  -36.9776   66.2516   28.7876 H   0  0  0  0  0  0  0  0  0  0  0  0
  -38.3203   65.7919   29.7797 H   0  0  0  0  0  0  0  0  0  0  0  0
  -36.6888   68.4170   28.3823 H   0  0  0  0  0  0  0  0  0  0  0  0
  1  4  1  0  0  0
  1  5  1  0  0  0
  1  6  1  0  0  0
  2  4  1  0  0  0
  2  7  1  0  0  0
  2  8  1  0  0  0
  3  4  2  0  0  0
  3  9  1  0  0  0
M  END
> <minimizedAffinity>
-2.15182

$$$$
3520


  9  8  0  0  0  0  0  0  0  0999 V2000
  -39.8355   65.5056   30.4980 N   0  0  0  0  0  0  0  0  0  0  0  0
  -37.8045   66.3549   29.8463 N   0  0  0  0  0  0  0  0  0  0  0  0
  -38.4154   66.4619   32.1110 N   0  0  0  0  0  0  0  0  0  0  0  0
  -38.6737   66.1236   30.8799 C   0  0  0  0  0  0  0  0  0  0  0  0
  -40.5575   65.2811   31.1740 H   0  0  0  0  0  0  0  0  0  0  0  0
  -40.0081   65.2532   29.5310 H   0  0  0  0  0  0  0  0  0  0  0  0
  -36.9096   66.8067   29.9997 H   0  0  0  0  0  0  0  0  0  0  0  0
  -38.0297   66.0824   28.8957 H   0  0  0  0  0  0  0  0  0  0  0  0
  -37.4909   66.9058   32.1418 H   0  0  0  0  0  0  0  0  0  0  0  0
  1  4  1  0  0  0
  1  5  1  0  0  0
  1  6  1  0  0  0
  2  4  1  0  0  0
  2  7  1  0  0  0
  2  8  1  0  0  0
  3  4  2  0  0  0
  3  9  1  0  0  0
M  END
> <minimizedAffinity>
-2.13969

$$$$
3520


  9  8  0  0  0  0  0  0  0  0999 V2000
  -34.8925   67.8694   38.7072 N   0  0  0  0  0  0  0  0  0  0  0  0
  -34.0868   67.8759   40.8570 N   0  0  0  0  0  0  0  0  0  0  0  0
  -33.9421   69.8381   39.5755 N   0  0  0  0  0  0  0  0  0  0  0  0
  -34.2904   68.5896   39.7053 C   0  0  0  0  0  0  0  0  0  0  0  0
  -35.0961   68.2889   37.8065 H   0  0  0  0  0  0  0  0  0  0  0  0
  -35.1532   66.8981   38.8381 H   0  0  0  0  0  0  0  0  0  0  0  0
  -33.6489   68.2969   41.6691 H   0  0  0  0  0  0  0  0  0  0  0  0
  -34.3665   66.9039   40.9325 H   0  0  0  0  0  0  0  0  0  0  0  0
  -33.5141   70.1519   40.4536 H   0  0  0  0  0  0  0  0  0  0  0  0
  1  4  1  0  0  0
  1  5  1  0  0  0
  1  6  1  0  0  0
  2  4  1  0  0  0
  2  7  1  0  0  0
  2  8  1  0  0  0
  3  4  2  0  0  0
  3  9  1  0  0  0
M  END
> <minimizedAffinity>
-2.12418

$$$$
3520


  9  8  0  0  0  0  0  0  0  0999 V2000
  -36.6401   71.9115   29.7957 N   0  0  0  0  0  0  0  0  0  0  0  0
  -35.6274   70.3414   28.4614 N   0  0  0  0  0  0  0  0  0  0  0  0
  -35.0280   70.4745   30.7278 N   0  0  0  0  0  0  0  0  0  0  0  0
  -35.7311   70.8897   29.7128 C   0  0  0  0  0  0  0  0  0  0  0  0
  -36.8063   72.3968   30.6706 H   0  0  0  0  0  0  0  0  0  0  0  0
  -37.1740   72.2124   28.9875 H   0  0  0  0  0  0  0  0  0  0  0  0
  -34.9883   69.5775   28.2706 H   0  0  0  0  0  0  0  0  0  0  0  0
  -36.1858   70.6836   27.6870 H   0  0  0  0  0  0  0  0  0  0  0  0
  -34.4239   69.7061   30.4157 H   0  0  0  0  0  0  0  0  0  0  0  0
  1  4  1  0  0  0
  1  5  1  0  0  0
  1  6  1  0  0  0
  2  4  1  0  0  0
  2  7  1  0  0  0
  2  8  1  0  0  0
  3  4  2  0  0  0
  3  9  1  0  0  0
M  END
> <minimizedAffinity>
-2.09631

$$$$
3520


  9  8  0  0  0  0  0  0  0  0999 V2000
  -34.5315   67.8702   42.6640 N   0  0  0  0  0  0  0  0  0  0  0  0
  -33.6663   68.4002   40.6045 N   0  0  0  0  0  0  0  0  0  0  0  0
  -32.1992   68.0208   42.3981 N   0  0  0  0  0  0  0  0  0  0  0  0
  -33.4065   68.0931   41.9142 C   0  0  0  0  0  0  0  0  0  0  0  0
  -34.4682   67.6342   43.6483 H   0  0  0  0  0  0  0  0  0  0  0  0
  -35.4591   67.9329   42.2588 H   0  0  0  0  0  0  0  0  0  0  0  0
  -32.9171   68.5874   39.9470 H   0  0  0  0  0  0  0  0  0  0  0  0
  -34.6160   68.4511   40.2523 H   0  0  0  0  0  0  0  0  0  0  0  0
  -31.5320   68.2273   41.6465 H   0  0  0  0  0  0  0  0  0  0  0  0
  1  4  1  0  0  0
  1  5  1  0  0  0
  1  6  1  0  0  0
  2  4  1  0  0  0
  2  7  1  0  0  0
  2  8  1  0  0  0
  3  4  2  0  0  0
  3  9  1  0  0  0
M  END
> <minimizedAffinity>
-2.07041

$$$$
3520


  9  8  0  0  0  0  0  0  0  0999 V2000
  -35.0634   70.4671   30.7259 N   0  0  0  0  0  0  0  0  0  0  0  0
  -35.7232   70.2958   28.5335 N   0  0  0  0  0  0  0  0  0  0  0  0
  -35.5393   72.4234   29.5096 N   0  0  0  0  0  0  0  0  0  0  0  0
  -35.4461   71.1264   29.5873 C   0  0  0  0  0  0  0  0  0  0  0  0
  -34.8316   70.9739   31.5733 H   0  0  0  0  0  0  0  0  0  0  0  0
  -34.9991   69.4554   30.7559 H   0  0  0  0  0  0  0  0  0  0  0  0
  -36.0175   70.6624   27.6349 H   0  0  0  0  0  0  0  0  0  0  0  0
  -35.6438   69.2884   28.6201 H   0  0  0  0  0  0  0  0  0  0  0  0
  -35.8419   72.6740   28.5618 H   0  0  0  0  0  0  0  0  0  0  0  0
  1  4  1  0  0  0
  1  5  1  0  0  0
  1  6  1  0  0  0
  2  4  1  0  0  0
  2  7  1  0  0  0
  2  8  1  0  0  0
  3  4  2  0  0  0
  3  9  1  0  0  0
M  END
> <minimizedAffinity>
-2.06956

$$$$
3520


  9  8  0  0  0  0  0  0  0  0999 V2000
  -36.0708   70.7080   27.7133 N   0  0  0  0  0  0  0  0  0  0  0  0
  -35.2597   72.8429   27.4781 N   0  0  0  0  0  0  0  0  0  0  0  0
  -37.5598   72.4567   27.2055 N   0  0  0  0  0  0  0  0  0  0  0  0
  -36.3569   72.0226   27.4535 C   0  0  0  0  0  0  0  0  0  0  0  0
  -36.8007   70.0039   27.7236 H   0  0  0  0  0  0  0  0  0  0  0  0
  -35.1236   70.3997   27.9040 H   0  0  0  0  0  0  0  0  0  0  0  0
  -35.3402   73.8382   27.3008 H   0  0  0  0  0  0  0  0  0  0  0  0
  -34.3330   72.4798   27.6730 H   0  0  0  0  0  0  0  0  0  0  0  0
  -37.5160   73.4690   27.0440 H   0  0  0  0  0  0  0  0  0  0  0  0
  1  4  1  0  0  0
  1  5  1  0  0  0
  1  6  1  0  0  0
  2  4  1  0  0  0
  2  7  1  0  0  0
  2  8  1  0  0  0
  3  4  2  0  0  0
  3  9  1  0  0  0
M  END
> <minimizedAffinity>
-2.05593

$$$$
3520


  9  8  0  0  0  0  0  0  0  0999 V2000
  -31.3460   72.7633   29.4654 N   0  0  0  0  0  0  0  0  0  0  0  0
  -33.3888   71.7587   29.7631 N   0  0  0  0  0  0  0  0  0  0  0  0
  -32.2725   72.6541   31.6247 N   0  0  0  0  0  0  0  0  0  0  0  0
  -32.3315   72.4050   30.3474 C   0  0  0  0  0  0  0  0  0  0  0  0
  -30.5120   73.2482   29.7785 H   0  0  0  0  0  0  0  0  0  0  0  0
  -31.4204   72.5565   28.4753 H   0  0  0  0  0  0  0  0  0  0  0  0
  -34.1820   71.4419   30.3099 H   0  0  0  0  0  0  0  0  0  0  0  0
  -33.4102   71.5759   28.7657 H   0  0  0  0  0  0  0  0  0  0  0  0
  -33.1229   72.2906   32.0690 H   0  0  0  0  0  0  0  0  0  0  0  0
  1  4  1  0  0  0
  1  5  1  0  0  0
  1  6  1  0  0  0
  2  4  1  0  0  0
  2  7  1  0  0  0
  2  8  1  0  0  0
  3  4  2  0  0  0
  3  9  1  0  0  0
M  END
> <minimizedAffinity>
-2.05558

$$$$
3520


  9  8  0  0  0  0  0  0  0  0999 V2000
  -34.2362   73.8139   28.2433 N   0  0  0  0  0  0  0  0  0  0  0  0
  -34.9136   72.6232   30.0856 N   0  0  0  0  0  0  0  0  0  0  0  0
  -32.9161   73.8530   30.1897 N   0  0  0  0  0  0  0  0  0  0  0  0
  -33.9694   73.4507   29.5372 C   0  0  0  0  0  0  0  0  0  0  0  0
  -33.6103   74.4248   27.7296 H   0  0  0  0  0  0  0  0  0  0  0  0
  -35.0657   73.4852   27.7612 H   0  0  0  0  0  0  0  0  0  0  0  0
  -34.8299   72.2837   31.0376 H   0  0  0  0  0  0  0  0  0  0  0  0
  -35.7249   72.3234   29.5558 H   0  0  0  0  0  0  0  0  0  0  0  0
  -32.9405   73.4489   31.1325 H   0  0  0  0  0  0  0  0  0  0  0  0
  1  4  1  0  0  0
  1  5  1  0  0  0
  1  6  1  0  0  0
  2  4  1  0  0  0
  2  7  1  0  0  0
  2  8  1  0  0  0
  3  4  2  0  0  0
  3  9  1  0  0  0
M  END
> <minimizedAffinity>
-1.98493

$$$$
3520


  9  8  0  0  0  0  0  0  0  0999 V2000
  -43.8454   60.3368   33.4846 N   0  0  0  0  0  0  0  0  0  0  0  0
  -42.7597   59.8822   35.4557 N   0  0  0  0  0  0  0  0  0  0  0  0
  -43.1485   62.1182   34.8535 N   0  0  0  0  0  0  0  0  0  0  0  0
  -43.2471   60.8425   34.6087 C   0  0  0  0  0  0  0  0  0  0  0  0
  -44.2451   60.9493   32.7818 H   0  0  0  0  0  0  0  0  0  0  0  0
  -43.9079   59.3378   33.3216 H   0  0  0  0  0  0  0  0  0  0  0  0
  -42.2941   60.1289   36.3223 H   0  0  0  0  0  0  0  0  0  0  0  0
  -42.8484   58.8948   35.2416 H   0  0  0  0  0  0  0  0  0  0  0  0
  -42.6642   62.2435   35.7493 H   0  0  0  0  0  0  0  0  0  0  0  0
  1  4  1  0  0  0
  1  5  1  0  0  0
  1  6  1  0  0  0
  2  4  1  0  0  0
  2  7  1  0  0  0
  2  8  1  0  0  0
  3  4  2  0  0  0
  3  9  1  0  0  0
M  END
> <minimizedAffinity>
-1.95856

$$$$
3520


  9  8  0  0  0  0  0  0  0  0999 V2000
  -40.2022   72.0610   29.1822 N   0  0  0  0  0  0  0  0  0  0  0  0
  -38.1652   72.3360   28.1595 N   0  0  0  0  0  0  0  0  0  0  0  0
  -38.2478   72.0709   30.4911 N   0  0  0  0  0  0  0  0  0  0  0  0
  -38.8436   72.1518   29.3355 C   0  0  0  0  0  0  0  0  0  0  0  0
  -40.8127   71.9237   29.9805 H   0  0  0  0  0  0  0  0  0  0  0  0
  -40.6378   72.1268   28.2687 H   0  0  0  0  0  0  0  0  0  0  0  0
  -37.1546   72.4187   28.1399 H   0  0  0  0  0  0  0  0  0  0  0  0
  -38.6529   72.3965   27.2723 H   0  0  0  0  0  0  0  0  0  0  0  0
  -37.2367   72.1673   30.3460 H   0  0  0  0  0  0  0  0  0  0  0  0
  1  4  1  0  0  0
  1  5  1  0  0  0
  1  6  1  0  0  0
  2  4  1  0  0  0
  2  7  1  0  0  0
  2  8  1  0  0  0
  3  4  2  0  0  0
  3  9  1  0  0  0
M  END
> <minimizedAffinity>
-1.95831

$$$$
3520


  9  8  0  0  0  0  0  0  0  0999 V2000
  -43.1485   60.6341   35.4946 N   0  0  0  0  0  0  0  0  0  0  0  0
  -43.9241   60.4584   33.3409 N   0  0  0  0  0  0  0  0  0  0  0  0
  -41.9890   61.7206   33.7602 N   0  0  0  0  0  0  0  0  0  0  0  0
  -42.9714   60.9747   34.1793 C   0  0  0  0  0  0  0  0  0  0  0  0
  -42.5070   60.9561   36.2113 H   0  0  0  0  0  0  0  0  0  0  0  0
  -43.9231   60.0505   35.7910 H   0  0  0  0  0  0  0  0  0  0  0  0
  -43.9037   60.6388   32.3431 H   0  0  0  0  0  0  0  0  0  0  0  0
  -44.6800   59.8808   33.6925 H   0  0  0  0  0  0  0  0  0  0  0  0
  -42.0727   61.8320   32.7437 H   0  0  0  0  0  0  0  0  0  0  0  0
  1  4  1  0  0  0
  1  5  1  0  0  0
  1  6  1  0  0  0
  2  4  1  0  0  0
  2  7  1  0  0  0
  2  8  1  0  0  0
  3  4  2  0  0  0
  3  9  1  0  0  0
M  END
> <minimizedAffinity>
-1.93860

$$$$
3520


  9  8  0  0  0  0  0  0  0  0999 V2000
  -33.4395   72.1036   40.3228 N   0  0  0  0  0  0  0  0  0  0  0  0
  -33.6665   71.9931   38.0409 N   0  0  0  0  0  0  0  0  0  0  0  0
  -33.9361   70.0380   39.3130 N   0  0  0  0  0  0  0  0  0  0  0  0
  -33.6926   71.3151   39.2312 C   0  0  0  0  0  0  0  0  0  0  0  0
  -33.4317   71.7159   41.2601 H   0  0  0  0  0  0  0  0  0  0  0  0
  -33.2541   73.0961   40.2278 H   0  0  0  0  0  0  0  0  0  0  0  0
  -33.8381   71.5209   37.1599 H   0  0  0  0  0  0  0  0  0  0  0  0
  -33.4735   72.9881   38.0040 H   0  0  0  0  0  0  0  0  0  0  0  0
  -34.0929   69.6730   38.3670 H   0  0  0  0  0  0  0  0  0  0  0  0
  1  4  1  0  0  0
  1  5  1  0  0  0
  1  6  1  0  0  0
  2  4  1  0  0  0
  2  7  1  0  0  0
  2  8  1  0  0  0
  3  4  2  0  0  0
  3  9  1  0  0  0
M  END
> <minimizedAffinity>
-1.93589

$$$$
3520


  9  8  0  0  0  0  0  0  0  0999 V2000
  -39.5256   62.7477   32.8642 N   0  0  0  0  0  0  0  0  0  0  0  0
  -38.2951   64.6397   32.4437 N   0  0  0  0  0  0  0  0  0  0  0  0
  -37.1860   62.6754   33.0955 N   0  0  0  0  0  0  0  0  0  0  0  0
  -38.2821   63.3210   32.8153 C   0  0  0  0  0  0  0  0  0  0  0  0
  -39.6455   61.7752   33.1262 H   0  0  0  0  0  0  0  0  0  0  0  0
  -40.3617   63.2759   32.6395 H   0  0  0  0  0  0  0  0  0  0  0  0
  -37.4377   65.1765   32.3707 H   0  0  0  0  0  0  0  0  0  0  0  0
  -39.1627   65.1201   32.2315 H   0  0  0  0  0  0  0  0  0  0  0  0
  -36.3917   63.3158   32.9873 H   0  0  0  0  0  0  0  0  0  0  0  0
  1  4  1  0  0  0
  1  5  1  0  0  0
  1  6  1  0  0  0
  2  4  1  0  0  0
  2  7  1  0  0  0
  2  8  1  0  0  0
  3  4  2  0  0  0
  3  9  1  0  0  0
M  END
> <minimizedAffinity>
-1.92799

$$$$
3520


  9  8  0  0  0  0  0  0  0  0999 V2000
  -34.2129   67.1565   42.2458 N   0  0  0  0  0  0  0  0  0  0  0  0
  -32.5848   68.1594   43.5165 N   0  0  0  0  0  0  0  0  0  0  0  0
  -33.0191   65.8709   43.8127 N   0  0  0  0  0  0  0  0  0  0  0  0
  -33.2614   67.0055   43.2202 C   0  0  0  0  0  0  0  0  0  0  0  0
  -34.7796   66.3732   41.9395 H   0  0  0  0  0  0  0  0  0  0  0  0
  -34.3784   68.0531   41.8016 H   0  0  0  0  0  0  0  0  0  0  0  0
  -31.8558   68.1783   44.2213 H   0  0  0  0  0  0  0  0  0  0  0  0
  -32.7931   69.0307   43.0411 H   0  0  0  0  0  0  0  0  0  0  0  0
  -32.2693   66.0130   44.4985 H   0  0  0  0  0  0  0  0  0  0  0  0
  1  4  1  0  0  0
  1  5  1  0  0  0
  1  6  1  0  0  0
  2  4  1  0  0  0
  2  7  1  0  0  0
  2  8  1  0  0  0
  3  4  2  0  0  0
  3  9  1  0  0  0
M  END
> <minimizedAffinity>
-1.89662

$$$$
3520


  9  8  0  0  0  0  0  0  0  0999 V2000
  -40.6768   63.2024   32.7204 N   0  0  0  0  0  0  0  0  0  0  0  0
  -41.0313   64.5079   30.8655 N   0  0  0  0  0  0  0  0  0  0  0  0
  -38.8474   63.8097   31.3723 N   0  0  0  0  0  0  0  0  0  0  0  0
  -40.1218   63.8377   31.6407 C   0  0  0  0  0  0  0  0  0  0  0  0
  -40.1048   62.6723   33.3689 H   0  0  0  0  0  0  0  0  0  0  0  0
  -41.6736   63.2414   32.9032 H   0  0  0  0  0  0  0  0  0  0  0  0
  -40.7450   65.0186   30.0373 H   0  0  0  0  0  0  0  0  0  0  0  0
  -42.0187   64.5151   31.0967 H   0  0  0  0  0  0  0  0  0  0  0  0
  -38.6800   64.3556   30.5199 H   0  0  0  0  0  0  0  0  0  0  0  0
  1  4  1  0  0  0
  1  5  1  0  0  0
  1  6  1  0  0  0
  2  4  1  0  0  0
  2  7  1  0  0  0
  2  8  1  0  0  0
  3  4  2  0  0  0
  3  9  1  0  0  0
M  END
> <minimizedAffinity>
-1.89572

$$$$
3520


  9  8  0  0  0  0  0  0  0  0999 V2000
  -39.9615   70.1755   28.5681 N   0  0  0  0  0  0  0  0  0  0  0  0
  -39.0398   71.0388   30.4854 N   0  0  0  0  0  0  0  0  0  0  0  0
  -40.6219   72.3097   29.3043 N   0  0  0  0  0  0  0  0  0  0  0  0
  -39.9102   71.2276   29.4443 C   0  0  0  0  0  0  0  0  0  0  0  0
  -40.5697   70.1971   27.7567 H   0  0  0  0  0  0  0  0  0  0  0  0
  -39.3956   69.3449   28.7040 H   0  0  0  0  0  0  0  0  0  0  0  0
  -38.9112   71.7454   31.2014 H   0  0  0  0  0  0  0  0  0  0  0  0
  -38.4961   70.1869   30.5714 H   0  0  0  0  0  0  0  0  0  0  0  0
  -40.4089   72.9449   30.0813 H   0  0  0  0  0  0  0  0  0  0  0  0
  1  4  1  0  0  0
  1  5  1  0  0  0
  1  6  1  0  0  0
  2  4  1  0  0  0
  2  7  1  0  0  0
  2  8  1  0  0  0
  3  4  2  0  0  0
  3  9  1  0  0  0
M  END
> <minimizedAffinity>
-1.85441

$$$$
3520


  9  8  0  0  0  0  0  0  0  0999 V2000
  -33.3563   70.9066   30.6105 N   0  0  0  0  0  0  0  0  0  0  0  0
  -34.5251   72.7756   29.9690 N   0  0  0  0  0  0  0  0  0  0  0  0
  -34.4886   70.9060   28.5488 N   0  0  0  0  0  0  0  0  0  0  0  0
  -34.1398   71.4988   29.6551 C   0  0  0  0  0  0  0  0  0  0  0  0
  -33.0086   69.9611   30.4924 H   0  0  0  0  0  0  0  0  0  0  0  0
  -33.1017   71.3933   31.4631 H   0  0  0  0  0  0  0  0  0  0  0  0
  -35.1070   73.3210   29.3425 H   0  0  0  0  0  0  0  0  0  0  0  0
  -34.2392   73.2152   30.8371 H   0  0  0  0  0  0  0  0  0  0  0  0
  -35.0705   71.5499   28.0015 H   0  0  0  0  0  0  0  0  0  0  0  0
  1  4  1  0  0  0
  1  5  1  0  0  0
  1  6  1  0  0  0
  2  4  1  0  0  0
  2  7  1  0  0  0
  2  8  1  0  0  0
  3  4  2  0  0  0
  3  9  1  0  0  0
M  END
> <minimizedAffinity>
-1.82940

$$$$
3520


  9  8  0  0  0  0  0  0  0  0999 V2000
  -33.4965   69.5337   41.1554 N   0  0  0  0  0  0  0  0  0  0  0  0
  -33.8221   69.3189   43.4179 N   0  0  0  0  0  0  0  0  0  0  0  0
  -32.2072   67.9802   42.3627 N   0  0  0  0  0  0  0  0  0  0  0  0
  -33.1294   68.8989   42.3129 C   0  0  0  0  0  0  0  0  0  0  0  0
  -33.0548   69.3089   40.2705 H   0  0  0  0  0  0  0  0  0  0  0  0
  -34.2181   70.2463   41.1480 H   0  0  0  0  0  0  0  0  0  0  0  0
  -33.6428   68.9251   44.3351 H   0  0  0  0  0  0  0  0  0  0  0  0
  -34.5366   70.0358   43.3524 H   0  0  0  0  0  0  0  0  0  0  0  0
  -32.1154   67.6603   43.3332 H   0  0  0  0  0  0  0  0  0  0  0  0
  1  4  1  0  0  0
  1  5  1  0  0  0
  1  6  1  0  0  0
  2  4  1  0  0  0
  2  7  1  0  0  0
  2  8  1  0  0  0
  3  4  2  0  0  0
  3  9  1  0  0  0
M  END
> <minimizedAffinity>
-1.80455

$$$$
3520


  9  8  0  0  0  0  0  0  0  0999 V2000
  -40.4861   63.2315   32.6144 N   0  0  0  0  0  0  0  0  0  0  0  0
  -39.4582   61.4088   33.5589 N   0  0  0  0  0  0  0  0  0  0  0  0
  -38.2151   63.3703   33.2114 N   0  0  0  0  0  0  0  0  0  0  0  0
  -39.3319   62.7044   33.1316 C   0  0  0  0  0  0  0  0  0  0  0  0
  -40.5183   64.1833   32.2652 H   0  0  0  0  0  0  0  0  0  0  0  0
  -41.3413   62.6885   32.5660 H   0  0  0  0  0  0  0  0  0  0  0  0
  -38.6746   60.9064   33.9613 H   0  0  0  0  0  0  0  0  0  0  0  0
  -40.3392   60.9118   33.4848 H   0  0  0  0  0  0  0  0  0  0  0  0
  -37.5016   62.7643   33.6313 H   0  0  0  0  0  0  0  0  0  0  0  0
  1  4  1  0  0  0
  1  5  1  0  0  0
  1  6  1  0  0  0
  2  4  1  0  0  0
  2  7  1  0  0  0
  2  8  1  0  0  0
  3  4  2  0  0  0
  3  9  1  0  0  0
M  END
> <minimizedAffinity>
-1.77699

$$$$
3520


  9  8  0  0  0  0  0  0  0  0999 V2000
  -37.3525   69.1298   30.7339 N   0  0  0  0  0  0  0  0  0  0  0  0
  -37.8411   67.0452   29.9051 N   0  0  0  0  0  0  0  0  0  0  0  0
  -39.5398   68.6632   30.0053 N   0  0  0  0  0  0  0  0  0  0  0  0
  -38.3053   68.2989   30.2054 C   0  0  0  0  0  0  0  0  0  0  0  0
  -37.5750   70.0839   30.9963 H   0  0  0  0  0  0  0  0  0  0  0  0
  -36.3982   68.8178   30.8774 H   0  0  0  0  0  0  0  0  0  0  0  0
  -38.4496   66.3375   29.5085 H   0  0  0  0  0  0  0  0  0  0  0  0
  -36.8748   66.7859   30.0714 H   0  0  0  0  0  0  0  0  0  0  0  0
  -40.0544   67.8712   29.6045 H   0  0  0  0  0  0  0  0  0  0  0  0
  1  4  1  0  0  0
  1  5  1  0  0  0
  1  6  1  0  0  0
  2  4  1  0  0  0
  2  7  1  0  0  0
  2  8  1  0  0  0
  3  4  2  0  0  0
  3  9  1  0  0  0
M  END
> <minimizedAffinity>
-1.76892

$$$$
3520


  9  8  0  0  0  0  0  0  0  0999 V2000
  -34.7464   73.2487   27.2916 N   0  0  0  0  0  0  0  0  0  0  0  0
  -35.9656   72.4609   29.0703 N   0  0  0  0  0  0  0  0  0  0  0  0
  -35.0876   70.9325   27.5189 N   0  0  0  0  0  0  0  0  0  0  0  0
  -35.2573   72.1541   27.9383 C   0  0  0  0  0  0  0  0  0  0  0  0
  -34.2028   73.1497   26.4410 H   0  0  0  0  0  0  0  0  0  0  0  0
  -34.8944   74.1885   27.6430 H   0  0  0  0  0  0  0  0  0  0  0  0
  -36.3944   71.7377   29.6375 H   0  0  0  0  0  0  0  0  0  0  0  0
  -36.0840   73.4209   29.3753 H   0  0  0  0  0  0  0  0  0  0  0  0
  -35.5617   70.2945   28.1677 H   0  0  0  0  0  0  0  0  0  0  0  0
  1  4  1  0  0  0
  1  5  1  0  0  0
  1  6  1  0  0  0
  2  4  1  0  0  0
  2  7  1  0  0  0
  2  8  1  0  0  0
  3  4  2  0  0  0
  3  9  1  0  0  0
M  END
> <minimizedAffinity>
-1.73637

$$$$
3520


  9  8  0  0  0  0  0  0  0  0999 V2000
  -47.1377   59.7487   38.6114 N   0  0  0  0  0  0  0  0  0  0  0  0
  -48.5764   57.9596   38.6091 N   0  0  0  0  0  0  0  0  0  0  0  0
  -46.7493   57.9560   40.0839 N   0  0  0  0  0  0  0  0  0  0  0  0
  -47.4521   58.5277   39.1478 C   0  0  0  0  0  0  0  0  0  0  0  0
  -46.3268   60.2687   38.9290 H   0  0  0  0  0  0  0  0  0  0  0  0
  -47.7049   60.1694   37.8835 H   0  0  0  0  0  0  0  0  0  0  0  0
  -48.9133   57.0556   38.9217 H   0  0  0  0  0  0  0  0  0  0  0  0
  -49.1059   58.4252   37.8800 H   0  0  0  0  0  0  0  0  0  0  0  0
  -47.1835   57.0559   40.3162 H   0  0  0  0  0  0  0  0  0  0  0  0
  1  4  1  0  0  0
  1  5  1  0  0  0
  1  6  1  0  0  0
  2  4  1  0  0  0
  2  7  1  0  0  0
  2  8  1  0  0  0
  3  4  2  0  0  0
  3  9  1  0  0  0
M  END
> <minimizedAffinity>
-1.69656

$$$$
3520


  9  8  0  0  0  0  0  0  0  0999 V2000
  -38.7167   67.4229   32.2667 N   0  0  0  0  0  0  0  0  0  0  0  0
  -39.4970   68.6809   30.5119 N   0  0  0  0  0  0  0  0  0  0  0  0
  -40.6811   66.7584   31.1566 N   0  0  0  0  0  0  0  0  0  0  0  0
  -39.6806   67.5793   31.3055 C   0  0  0  0  0  0  0  0  0  0  0  0
  -38.7440   66.6442   32.9160 H   0  0  0  0  0  0  0  0  0  0  0  0
  -37.9493   68.0795   32.3590 H   0  0  0  0  0  0  0  0  0  0  0  0
  -40.1429   68.9062   29.7632 H   0  0  0  0  0  0  0  0  0  0  0  0
  -38.7088   69.3044   30.6479 H   0  0  0  0  0  0  0  0  0  0  0  0
  -41.2609   67.0867   30.3763 H   0  0  0  0  0  0  0  0  0  0  0  0
  1  4  1  0  0  0
  1  5  1  0  0  0
  1  6  1  0  0  0
  2  4  1  0  0  0
  2  7  1  0  0  0
  2  8  1  0  0  0
  3  4  2  0  0  0
  3  9  1  0  0  0
M  END
> <minimizedAffinity>
-1.68359

$$$$
3520


  9  8  0  0  0  0  0  0  0  0999 V2000
  -38.8293   63.9564   32.8650 N   0  0  0  0  0  0  0  0  0  0  0  0
  -40.5648   63.9428   31.3621 N   0  0  0  0  0  0  0  0  0  0  0  0
  -40.6603   62.5264   33.2324 N   0  0  0  0  0  0  0  0  0  0  0  0
  -40.0473   63.4305   32.5226 C   0  0  0  0  0  0  0  0  0  0  0  0
  -38.3449   63.6565   33.7041 H   0  0  0  0  0  0  0  0  0  0  0  0
  -38.3765   64.6605   32.2924 H   0  0  0  0  0  0  0  0  0  0  0  0
  -41.4610   63.6340   31.0016 H   0  0  0  0  0  0  0  0  0  0  0  0
  -40.0669   64.6459   30.8269 H   0  0  0  0  0  0  0  0  0  0  0  0
  -41.5481   62.2953   32.7728 H   0  0  0  0  0  0  0  0  0  0  0  0
  1  4  1  0  0  0
  1  5  1  0  0  0
  1  6  1  0  0  0
  2  4  1  0  0  0
  2  7  1  0  0  0
  2  8  1  0  0  0
  3  4  2  0  0  0
  3  9  1  0  0  0
M  END
> <minimizedAffinity>
-1.67062

$$$$
3520


  9  8  0  0  0  0  0  0  0  0999 V2000
  -32.8756   68.3502   41.8600 N   0  0  0  0  0  0  0  0  0  0  0  0
  -34.6890   67.2539   40.9763 N   0  0  0  0  0  0  0  0  0  0  0  0
  -34.1699   66.9599   43.2473 N   0  0  0  0  0  0  0  0  0  0  0  0
  -33.9225   67.4956   42.0859 C   0  0  0  0  0  0  0  0  0  0  0  0
  -32.2367   68.6063   42.6049 H   0  0  0  0  0  0  0  0  0  0  0  0
  -32.7086   68.7527   40.9442 H   0  0  0  0  0  0  0  0  0  0  0  0
  -35.4935   66.6376   41.0138 H   0  0  0  0  0  0  0  0  0  0  0  0
  -34.4746   67.6830   40.0827 H   0  0  0  0  0  0  0  0  0  0  0  0
  -34.9995   66.3621   43.1625 H   0  0  0  0  0  0  0  0  0  0  0  0
  1  4  1  0  0  0
  1  5  1  0  0  0
  1  6  1  0  0  0
  2  4  1  0  0  0
  2  7  1  0  0  0
  2  8  1  0  0  0
  3  4  2  0  0  0
  3  9  1  0  0  0
M  END
> <minimizedAffinity>
-1.66582

$$$$
3520


  9  8  0  0  0  0  0  0  0  0999 V2000
  -46.9475   60.1563   39.5509 N   0  0  0  0  0  0  0  0  0  0  0  0
  -46.6821   57.9459   40.1115 N   0  0  0  0  0  0  0  0  0  0  0  0
  -48.0390   58.5060   38.2789 N   0  0  0  0  0  0  0  0  0  0  0  0
  -47.2615   58.8537   39.2646 C   0  0  0  0  0  0  0  0  0  0  0  0
  -47.3159   60.9198   38.9940 H   0  0  0  0  0  0  0  0  0  0  0  0
  -46.3381   60.3964   40.3252 H   0  0  0  0  0  0  0  0  0  0  0  0
  -46.8374   56.9494   40.0045 H   0  0  0  0  0  0  0  0  0  0  0  0
  -46.0809   58.2425   40.8726 H   0  0  0  0  0  0  0  0  0  0  0  0
  -48.1203   57.4832   38.2707 H   0  0  0  0  0  0  0  0  0  0  0  0
  1  4  1  0  0  0
  1  5  1  0  0  0
  1  6  1  0  0  0
  2  4  1  0  0  0
  2  7  1  0  0  0
  2  8  1  0  0  0
  3  4  2  0  0  0
  3  9  1  0  0  0
M  END
> <minimizedAffinity>
-1.66289

$$$$
3520


  9  8  0  0  0  0  0  0  0  0999 V2000
  -46.6625   60.6874   35.6852 N   0  0  0  0  0  0  0  0  0  0  0  0
  -48.6421   59.5657   35.9915 N   0  0  0  0  0  0  0  0  0  0  0  0
  -47.2241   59.9067   37.8318 N   0  0  0  0  0  0  0  0  0  0  0  0
  -47.4948   60.0471   36.5653 C   0  0  0  0  0  0  0  0  0  0  0  0
  -45.7820   61.0873   35.9912 H   0  0  0  0  0  0  0  0  0  0  0  0
  -46.9009   60.7820   34.7039 H   0  0  0  0  0  0  0  0  0  0  0  0
  -49.3392   59.0718   36.5380 H   0  0  0  0  0  0  0  0  0  0  0  0
  -48.8291   59.6874   35.0022 H   0  0  0  0  0  0  0  0  0  0  0  0
  -47.9950   59.3966   38.2771 H   0  0  0  0  0  0  0  0  0  0  0  0
  1  4  1  0  0  0
  1  5  1  0  0  0
  1  6  1  0  0  0
  2  4  1  0  0  0
  2  7  1  0  0  0
  2  8  1  0  0  0
  3  4  2  0  0  0
  3  9  1  0  0  0
M  END
> <minimizedAffinity>
-1.66177

$$$$
3520


  9  8  0  0  0  0  0  0  0  0999 V2000
  -33.4308   73.4006   30.1502 N   0  0  0  0  0  0  0  0  0  0  0  0
  -32.1258   71.6105   30.7529 N   0  0  0  0  0  0  0  0  0  0  0  0
  -32.5389   72.0095   28.4762 N   0  0  0  0  0  0  0  0  0  0  0  0
  -32.6918   72.3257   29.7306 C   0  0  0  0  0  0  0  0  0  0  0  0
  -33.8990   74.0074   29.4859 H   0  0  0  0  0  0  0  0  0  0  0  0
  -33.5311   73.6225   31.1347 H   0  0  0  0  0  0  0  0  0  0  0  0
  -31.5553   70.7916   30.5723 H   0  0  0  0  0  0  0  0  0  0  0  0
  -32.2608   71.8771   31.7221 H   0  0  0  0  0  0  0  0  0  0  0  0
  -31.9481   71.1726   28.4189 H   0  0  0  0  0  0  0  0  0  0  0  0
  1  4  1  0  0  0
  1  5  1  0  0  0
  1  6  1  0  0  0
  2  4  1  0  0  0
  2  7  1  0  0  0
  2  8  1  0  0  0
  3  4  2  0  0  0
  3  9  1  0  0  0
M  END
> <minimizedAffinity>
-1.66084

$$$$
3520


  9  8  0  0  0  0  0  0  0  0999 V2000
  -41.0084   65.9900   32.4602 N   0  0  0  0  0  0  0  0  0  0  0  0
  -38.7975   66.6083   32.4803 N   0  0  0  0  0  0  0  0  0  0  0  0
  -40.1466   67.1254   34.3312 N   0  0  0  0  0  0  0  0  0  0  0  0
  -39.9932   66.6002   33.1491 C   0  0  0  0  0  0  0  0  0  0  0  0
  -41.9414   65.9209   32.8519 H   0  0  0  0  0  0  0  0  0  0  0  0
  -40.8584   65.5889   31.5408 H   0  0  0  0  0  0  0  0  0  0  0  0
  -37.9689   67.0309   32.8845 H   0  0  0  0  0  0  0  0  0  0  0  0
  -38.7043   66.1930   31.5597 H   0  0  0  0  0  0  0  0  0  0  0  0
  -39.2484   67.5182   34.6343 H   0  0  0  0  0  0  0  0  0  0  0  0
  1  4  1  0  0  0
  1  5  1  0  0  0
  1  6  1  0  0  0
  2  4  1  0  0  0
  2  7  1  0  0  0
  2  8  1  0  0  0
  3  4  2  0  0  0
  3  9  1  0  0  0
M  END
> <minimizedAffinity>
-1.64995

$$$$
3520


  9  8  0  0  0  0  0  0  0  0999 V2000
  -41.4980   73.2769   30.0583 N   0  0  0  0  0  0  0  0  0  0  0  0
  -39.8211   72.3295   31.3078 N   0  0  0  0  0  0  0  0  0  0  0  0
  -39.9191   71.8884   29.0036 N   0  0  0  0  0  0  0  0  0  0  0  0
  -40.3905   72.4701   30.0696 C   0  0  0  0  0  0  0  0  0  0  0  0
  -42.0068   73.4581   29.1998 H   0  0  0  0  0  0  0  0  0  0  0  0
  -41.8413   73.7172   30.9049 H   0  0  0  0  0  0  0  0  0  0  0  0
  -38.9958   71.7570   31.4479 H   0  0  0  0  0  0  0  0  0  0  0  0
  -40.2082   72.7926   32.1229 H   0  0  0  0  0  0  0  0  0  0  0  0
  -39.0915   71.3423   29.2672 H   0  0  0  0  0  0  0  0  0  0  0  0
  1  4  1  0  0  0
  1  5  1  0  0  0
  1  6  1  0  0  0
  2  4  1  0  0  0
  2  7  1  0  0  0
  2  8  1  0  0  0
  3  4  2  0  0  0
  3  9  1  0  0  0
M  END
> <minimizedAffinity>
-1.62570

$$$$
3520


  9  8  0  0  0  0  0  0  0  0999 V2000
  -39.3640   65.4450   30.6985 N   0  0  0  0  0  0  0  0  0  0  0  0
  -41.4151   65.9419   31.6023 N   0  0  0  0  0  0  0  0  0  0  0  0
  -40.1195   67.6725   30.6858 N   0  0  0  0  0  0  0  0  0  0  0  0
  -40.2897   66.4150   30.9803 C   0  0  0  0  0  0  0  0  0  0  0  0
  -38.4890   65.6720   30.2384 H   0  0  0  0  0  0  0  0  0  0  0  0
  -39.5251   64.4731   30.9394 H   0  0  0  0  0  0  0  0  0  0  0  0
  -42.1744   66.5614   31.8636 H   0  0  0  0  0  0  0  0  0  0  0  0
  -41.5230   64.9576   31.8216 H   0  0  0  0  0  0  0  0  0  0  0  0
  -40.9457   68.1963   30.9952 H   0  0  0  0  0  0  0  0  0  0  0  0
  1  4  1  0  0  0
  1  5  1  0  0  0
  1  6  1  0  0  0
  2  4  1  0  0  0
  2  7  1  0  0  0
  2  8  1  0  0  0
  3  4  2  0  0  0
  3  9  1  0  0  0
M  END
> <minimizedAffinity>
-1.62149

$$$$
3520


  9  8  0  0  0  0  0  0  0  0999 V2000
  -40.2645   62.8281   33.7891 N   0  0  0  0  0  0  0  0  0  0  0  0
  -42.2005   61.5943   33.7640 N   0  0  0  0  0  0  0  0  0  0  0  0
  -40.1343   60.4796   33.8079 N   0  0  0  0  0  0  0  0  0  0  0  0
  -40.8307   61.5804   33.7880 C   0  0  0  0  0  0  0  0  0  0  0  0
  -39.2575   62.9478   33.8062 H   0  0  0  0  0  0  0  0  0  0  0  0
  -40.8331   63.6678   33.7742 H   0  0  0  0  0  0  0  0  0  0  0  0
  -42.7377   60.7341   33.7602 H   0  0  0  0  0  0  0  0  0  0  0  0
  -42.7196   62.4655   33.7479 H   0  0  0  0  0  0  0  0  0  0  0  0
  -40.7807   59.6828   33.8022 H   0  0  0  0  0  0  0  0  0  0  0  0
  1  4  1  0  0  0
  1  5  1  0  0  0
  1  6  1  0  0  0
  2  4  1  0  0  0
  2  7  1  0  0  0
  2  8  1  0  0  0
  3  4  2  0  0  0
  3  9  1  0  0  0
M  END
> <minimizedAffinity>
-1.61008

$$$$
3520


  9  8  0  0  0  0  0  0  0  0999 V2000
  -40.2597   61.2616   33.7316 N   0  0  0  0  0  0  0  0  0  0  0  0
  -40.9052   63.1887   32.6636 N   0  0  0  0  0  0  0  0  0  0  0  0
  -42.2073   62.3743   34.4398 N   0  0  0  0  0  0  0  0  0  0  0  0
  -41.1747   62.2783   33.6514 C   0  0  0  0  0  0  0  0  0  0  0  0
  -40.3513   60.5262   34.4240 H   0  0  0  0  0  0  0  0  0  0  0  0
  -39.4645   61.2140   33.1039 H   0  0  0  0  0  0  0  0  0  0  0  0
  -41.5086   63.9878   32.5025 H   0  0  0  0  0  0  0  0  0  0  0  0
  -40.0946   63.0908   32.0620 H   0  0  0  0  0  0  0  0  0  0  0  0
  -42.7380   63.2144   34.1839 H   0  0  0  0  0  0  0  0  0  0  0  0
  1  4  1  0  0  0
  1  5  1  0  0  0
  1  6  1  0  0  0
  2  4  1  0  0  0
  2  7  1  0  0  0
  2  8  1  0  0  0
  3  4  2  0  0  0
  3  9  1  0  0  0
M  END
> <minimizedAffinity>
-1.58874

$$$$
3520


  9  8  0  0  0  0  0  0  0  0999 V2000
  -41.7077   65.3826   40.8735 N   0  0  0  0  0  0  0  0  0  0  0  0
  -39.8967   65.0246   39.5086 N   0  0  0  0  0  0  0  0  0  0  0  0
  -41.2367   63.2003   40.1328 N   0  0  0  0  0  0  0  0  0  0  0  0
  -40.9619   64.4731   40.1707 C   0  0  0  0  0  0  0  0  0  0  0  0
  -42.5227   65.0950   41.4044 H   0  0  0  0  0  0  0  0  0  0  0  0
  -41.4694   66.3683   40.8834 H   0  0  0  0  0  0  0  0  0  0  0  0
  -39.2676   64.4553   38.9530 H   0  0  0  0  0  0  0  0  0  0  0  0
  -39.7035   66.0192   39.5549 H   0  0  0  0  0  0  0  0  0  0  0  0
  -40.5382   62.7315   39.5453 H   0  0  0  0  0  0  0  0  0  0  0  0
  1  4  1  0  0  0
  1  5  1  0  0  0
  1  6  1  0  0  0
  2  4  1  0  0  0
  2  7  1  0  0  0
  2  8  1  0  0  0
  3  4  2  0  0  0
  3  9  1  0  0  0
M  END
> <minimizedAffinity>
-1.54285

$$$$
3520


  9  8  0  0  0  0  0  0  0  0999 V2000
  -32.8911   72.0133   39.9920 N   0  0  0  0  0  0  0  0  0  0  0  0
  -33.4745   71.9427   37.7726 N   0  0  0  0  0  0  0  0  0  0  0  0
  -33.8773   73.9040   38.9993 N   0  0  0  0  0  0  0  0  0  0  0  0
  -33.4357   72.6806   38.9264 C   0  0  0  0  0  0  0  0  0  0  0  0
  -32.8075   72.4551   40.9011 H   0  0  0  0  0  0  0  0  0  0  0  0
  -32.5547   71.0605   39.9045 H   0  0  0  0  0  0  0  0  0  0  0  0
  -33.8551   72.3247   36.9137 H   0  0  0  0  0  0  0  0  0  0  0  0
  -33.1248   70.9912   37.7422 H   0  0  0  0  0  0  0  0  0  0  0  0
  -34.2344   74.1789   38.0775 H   0  0  0  0  0  0  0  0  0  0  0  0
  1  4  1  0  0  0
  1  5  1  0  0  0
  1  6  1  0  0  0
  2  4  1  0  0  0
  2  7  1  0  0  0
  2  8  1  0  0  0
  3  4  2  0  0  0
  3  9  1  0  0  0
M  END
> <minimizedAffinity>
-1.53499

$$$$
3520


  9  8  0  0  0  0  0  0  0  0999 V2000
  -40.0251   67.2361   40.3635 N   0  0  0  0  0  0  0  0  0  0  0  0
  -39.8828   65.0943   39.5491 N   0  0  0  0  0  0  0  0  0  0  0  0
  -38.1236   66.5939   39.1368 N   0  0  0  0  0  0  0  0  0  0  0  0
  -39.2864   66.3229   39.6579 C   0  0  0  0  0  0  0  0  0  0  0  0
  -39.6886   68.1813   40.5122 H   0  0  0  0  0  0  0  0  0  0  0  0
  -40.9276   66.9955   40.7586 H   0  0  0  0  0  0  0  0  0  0  0  0
  -39.4364   64.3326   39.0499 H   0  0  0  0  0  0  0  0  0  0  0  0
  -40.7897   64.9089   39.9635 H   0  0  0  0  0  0  0  0  0  0  0  0
  -37.7736   65.7543   38.6621 H   0  0  0  0  0  0  0  0  0  0  0  0
  1  4  1  0  0  0
  1  5  1  0  0  0
  1  6  1  0  0  0
  2  4  1  0  0  0
  2  7  1  0  0  0
  2  8  1  0  0  0
  3  4  2  0  0  0
  3  9  1  0  0  0
M  END
> <minimizedAffinity>
-1.52456

$$$$
3520


  9  8  0  0  0  0  0  0  0  0999 V2000
  -33.8466   73.9066   29.0867 N   0  0  0  0  0  0  0  0  0  0  0  0
  -34.0770   73.3935   26.8608 N   0  0  0  0  0  0  0  0  0  0  0  0
  -33.8320   71.6519   28.4166 N   0  0  0  0  0  0  0  0  0  0  0  0
  -33.9143   72.9215   28.1367 C   0  0  0  0  0  0  0  0  0  0  0  0
  -33.7273   73.6820   30.0685 H   0  0  0  0  0  0  0  0  0  0  0  0
  -33.9148   74.8876   28.8383 H   0  0  0  0  0  0  0  0  0  0  0  0
  -34.1407   72.7636   26.0685 H   0  0  0  0  0  0  0  0  0  0  0  0
  -34.1375   74.3876   26.6691 H   0  0  0  0  0  0  0  0  0  0  0  0
  -33.9090   71.1183   27.5436 H   0  0  0  0  0  0  0  0  0  0  0  0
  1  4  1  0  0  0
  1  5  1  0  0  0
  1  6  1  0  0  0
  2  4  1  0  0  0
  2  7  1  0  0  0
  2  8  1  0  0  0
  3  4  2  0  0  0
  3  9  1  0  0  0
M  END
> <minimizedAffinity>
-1.51916

$$$$
3520


  9  8  0  0  0  0  0  0  0  0999 V2000
  -34.4166   70.6676   41.2567 N   0  0  0  0  0  0  0  0  0  0  0  0
  -33.8699   71.0251   39.0557 N   0  0  0  0  0  0  0  0  0  0  0  0
  -35.8640   69.8971   39.5702 N   0  0  0  0  0  0  0  0  0  0  0  0
  -34.7713   70.4999   39.9439 C   0  0  0  0  0  0  0  0  0  0  0  0
  -35.0040   70.3216   42.0077 H   0  0  0  0  0  0  0  0  0  0  0  0
  -33.5591   71.1424   41.5172 H   0  0  0  0  0  0  0  0  0  0  0  0
  -34.0185   70.9650   38.0543 H   0  0  0  0  0  0  0  0  0  0  0  0
  -33.0256   71.4892   39.3724 H   0  0  0  0  0  0  0  0  0  0  0  0
  -35.9048   69.8983   38.5450 H   0  0  0  0  0  0  0  0  0  0  0  0
  1  4  1  0  0  0
  1  5  1  0  0  0
  1  6  1  0  0  0
  2  4  1  0  0  0
  2  7  1  0  0  0
  2  8  1  0  0  0
  3  4  2  0  0  0
  3  9  1  0  0  0
M  END
> <minimizedAffinity>
-1.49953

$$$$
3520


  9  8  0  0  0  0  0  0  0  0999 V2000
  -42.1370   61.6961   42.8397 N   0  0  0  0  0  0  0  0  0  0  0  0
  -43.6443   63.3674   42.3862 N   0  0  0  0  0  0  0  0  0  0  0  0
  -41.8976   62.9604   40.8706 N   0  0  0  0  0  0  0  0  0  0  0  0
  -42.5274   62.6870   41.9777 C   0  0  0  0  0  0  0  0  0  0  0  0
  -41.3234   61.1222   42.6461 H   0  0  0  0  0  0  0  0  0  0  0  0
  -42.6484   61.5059   43.6946 H   0  0  0  0  0  0  0  0  0  0  0  0
  -44.0330   64.1246   41.8346 H   0  0  0  0  0  0  0  0  0  0  0  0
  -44.1162   63.1356   43.2535 H   0  0  0  0  0  0  0  0  0  0  0  0
  -42.3791   63.7362   40.4027 H   0  0  0  0  0  0  0  0  0  0  0  0
  1  4  1  0  0  0
  1  5  1  0  0  0
  1  6  1  0  0  0
  2  4  1  0  0  0
  2  7  1  0  0  0
  2  8  1  0  0  0
  3  4  2  0  0  0
  3  9  1  0  0  0
M  END
> <minimizedAffinity>
-1.49837

$$$$
3520


  9  8  0  0  0  0  0  0  0  0999 V2000
  -41.1650   66.6443   38.2973 N   0  0  0  0  0  0  0  0  0  0  0  0
  -40.0338   64.7873   37.5605 N   0  0  0  0  0  0  0  0  0  0  0  0
  -39.0353   66.1688   39.1755 N   0  0  0  0  0  0  0  0  0  0  0  0
  -40.0296   65.8822   38.3841 C   0  0  0  0  0  0  0  0  0  0  0  0
  -41.2799   67.4811   38.8588 H   0  0  0  0  0  0  0  0  0  0  0  0
  -41.9236   66.3952   37.6720 H   0  0  0  0  0  0  0  0  0  0  0  0
  -39.2499   64.1444   37.5322 H   0  0  0  0  0  0  0  0  0  0  0  0
  -40.8204   64.5867   36.9526 H   0  0  0  0  0  0  0  0  0  0  0  0
  -38.3085   65.4537   39.0606 H   0  0  0  0  0  0  0  0  0  0  0  0
  1  4  1  0  0  0
  1  5  1  0  0  0
  1  6  1  0  0  0
  2  4  1  0  0  0
  2  7  1  0  0  0
  2  8  1  0  0  0
  3  4  2  0  0  0
  3  9  1  0  0  0
M  END
> <minimizedAffinity>
-1.49785

$$$$
3520


  9  8  0  0  0  0  0  0  0  0999 V2000
  -42.6943   64.6393   40.0706 N   0  0  0  0  0  0  0  0  0  0  0  0
  -41.7023   62.8400   39.0462 N   0  0  0  0  0  0  0  0  0  0  0  0
  -42.0990   62.7637   41.3593 N   0  0  0  0  0  0  0  0  0  0  0  0
  -42.1628   63.3848   40.2160 C   0  0  0  0  0  0  0  0  0  0  0  0
  -43.0685   65.1464   40.8653 H   0  0  0  0  0  0  0  0  0  0  0  0
  -42.7311   65.0975   39.1665 H   0  0  0  0  0  0  0  0  0  0  0  0
  -41.2857   61.9157   39.0219 H   0  0  0  0  0  0  0  0  0  0  0  0
  -41.7628   63.3448   38.1687 H   0  0  0  0  0  0  0  0  0  0  0  0
  -41.6631   61.8470   41.2104 H   0  0  0  0  0  0  0  0  0  0  0  0
  1  4  1  0  0  0
  1  5  1  0  0  0
  1  6  1  0  0  0
  2  4  1  0  0  0
  2  7  1  0  0  0
  2  8  1  0  0  0
  3  4  2  0  0  0
  3  9  1  0  0  0
M  END
> <minimizedAffinity>
-1.47886

$$$$
3520


  9  8  0  0  0  0  0  0  0  0999 V2000
  -38.7249   66.3745   39.5003 N   0  0  0  0  0  0  0  0  0  0  0  0
  -39.8539   65.1486   37.9212 N   0  0  0  0  0  0  0  0  0  0  0  0
  -41.0635   66.5722   39.3438 N   0  0  0  0  0  0  0  0  0  0  0  0
  -39.9358   66.0580   38.9427 C   0  0  0  0  0  0  0  0  0  0  0  0
  -38.6561   67.0372   40.2650 H   0  0  0  0  0  0  0  0  0  0  0  0
  -37.8627   65.9582   39.1658 H   0  0  0  0  0  0  0  0  0  0  0  0
  -40.6814   64.8327   37.4274 H   0  0  0  0  0  0  0  0  0  0  0  0
  -38.9631   64.7623   37.6282 H   0  0  0  0  0  0  0  0  0  0  0  0
  -41.8227   66.1811   38.7750 H   0  0  0  0  0  0  0  0  0  0  0  0
  1  4  1  0  0  0
  1  5  1  0  0  0
  1  6  1  0  0  0
  2  4  1  0  0  0
  2  7  1  0  0  0
  2  8  1  0  0  0
  3  4  2  0  0  0
  3  9  1  0  0  0
M  END
> <minimizedAffinity>
-1.45991

$$$$
3520


  9  8  0  0  0  0  0  0  0  0999 V2000
  -41.9651   62.3090   37.5528 N   0  0  0  0  0  0  0  0  0  0  0  0
  -41.9386   62.9138   39.7674 N   0  0  0  0  0  0  0  0  0  0  0  0
  -40.9291   64.3241   38.1846 N   0  0  0  0  0  0  0  0  0  0  0  0
  -41.5788   63.2358   38.4852 C   0  0  0  0  0  0  0  0  0  0  0  0
  -41.7563   62.4361   36.5684 H   0  0  0  0  0  0  0  0  0  0  0  0
  -42.4711   61.4708   37.8172 H   0  0  0  0  0  0  0  0  0  0  0  0
  -41.7098   63.5192   40.5482 H   0  0  0  0  0  0  0  0  0  0  0  0
  -42.4437   62.0593   39.9754 H   0  0  0  0  0  0  0  0  0  0  0  0
  -40.7560   64.8514   39.0475 H   0  0  0  0  0  0  0  0  0  0  0  0
  1  4  1  0  0  0
  1  5  1  0  0  0
  1  6  1  0  0  0
  2  4  1  0  0  0
  2  7  1  0  0  0
  2  8  1  0  0  0
  3  4  2  0  0  0
  3  9  1  0  0  0
M  END
> <minimizedAffinity>
-1.42169

$$$$
3520


  9  8  0  0  0  0  0  0  0  0999 V2000
  -40.7546   62.6523   33.1068 N   0  0  0  0  0  0  0  0  0  0  0  0
  -39.4088   64.5028   33.2949 N   0  0  0  0  0  0  0  0  0  0  0  0
  -41.5624   64.5550   34.2293 N   0  0  0  0  0  0  0  0  0  0  0  0
  -40.6227   63.9329   33.5759 C   0  0  0  0  0  0  0  0  0  0  0  0
  -41.6085   62.1248   33.2529 H   0  0  0  0  0  0  0  0  0  0  0  0
  -40.0044   62.1933   32.6016 H   0  0  0  0  0  0  0  0  0  0  0  0
  -39.1884   65.4482   33.5886 H   0  0  0  0  0  0  0  0  0  0  0  0
  -38.6937   63.9972   32.7835 H   0  0  0  0  0  0  0  0  0  0  0  0
  -41.2266   65.4937   34.4718 H   0  0  0  0  0  0  0  0  0  0  0  0
  1  4  1  0  0  0
  1  5  1  0  0  0
  1  6  1  0  0  0
  2  4  1  0  0  0
  2  7  1  0  0  0
  2  8  1  0  0  0
  3  4  2  0  0  0
  3  9  1  0  0  0
M  END
> <minimizedAffinity>
-1.41762

$$$$
3520


  9  8  0  0  0  0  0  0  0  0999 V2000
  -41.6005   62.9377   39.6188 N   0  0  0  0  0  0  0  0  0  0  0  0
  -41.3232   63.1799   37.3526 N   0  0  0  0  0  0  0  0  0  0  0  0
  -43.4460   62.6312   38.1929 N   0  0  0  0  0  0  0  0  0  0  0  0
  -42.1858   62.9027   38.3804 C   0  0  0  0  0  0  0  0  0  0  0  0
  -42.1372   62.7497   40.4587 H   0  0  0  0  0  0  0  0  0  0  0  0
  -40.6162   63.1532   39.7335 H   0  0  0  0  0  0  0  0  0  0  0  0
  -41.6352   63.1849   36.3877 H   0  0  0  0  0  0  0  0  0  0  0  0
  -40.3456   63.3874   37.5251 H   0  0  0  0  0  0  0  0  0  0  0  0
  -43.6426   62.6661   37.1865 H   0  0  0  0  0  0  0  0  0  0  0  0
  1  4  1  0  0  0
  1  5  1  0  0  0
  1  6  1  0  0  0
  2  4  1  0  0  0
  2  7  1  0  0  0
  2  8  1  0  0  0
  3  4  2  0  0  0
  3  9  1  0  0  0
M  END
> <minimizedAffinity>
-1.40345

$$$$
3520


  9  8  0  0  0  0  0  0  0  0999 V2000
  -33.2193   69.3486   41.7403 N   0  0  0  0  0  0  0  0  0  0  0  0
  -32.8089   71.4650   42.5299 N   0  0  0  0  0  0  0  0  0  0  0  0
  -31.8073   69.6308   43.6004 N   0  0  0  0  0  0  0  0  0  0  0  0
  -32.5742   70.1223   42.6691 C   0  0  0  0  0  0  0  0  0  0  0  0
  -33.1234   68.3389   41.7403 H   0  0  0  0  0  0  0  0  0  0  0  0
  -33.8097   69.7604   41.0259 H   0  0  0  0  0  0  0  0  0  0  0  0
  -32.3888   72.1426   43.1566 H   0  0  0  0  0  0  0  0  0  0  0  0
  -33.4112   71.8226   41.7964 H   0  0  0  0  0  0  0  0  0  0  0  0
  -31.4425   70.4046   44.1668 H   0  0  0  0  0  0  0  0  0  0  0  0
  1  4  1  0  0  0
  1  5  1  0  0  0
  1  6  1  0  0  0
  2  4  1  0  0  0
  2  7  1  0  0  0
  2  8  1  0  0  0
  3  4  2  0  0  0
  3  9  1  0  0  0
M  END
> <minimizedAffinity>
-1.38709

$$$$
3520


  9  8  0  0  0  0  0  0  0  0999 V2000
  -31.2134   73.3054   39.3941 N   0  0  0  0  0  0  0  0  0  0  0  0
  -32.5917   73.2410   41.2291 N   0  0  0  0  0  0  0  0  0  0  0  0
  -33.5253   73.6335   39.1106 N   0  0  0  0  0  0  0  0  0  0  0  0
  -32.4936   73.4047   39.8723 C   0  0  0  0  0  0  0  0  0  0  0  0
  -31.0128   73.4081   38.4052 H   0  0  0  0  0  0  0  0  0  0  0  0
  -30.4296   73.1255   40.0120 H   0  0  0  0  0  0  0  0  0  0  0  0
  -33.4862   73.2925   41.7042 H   0  0  0  0  0  0  0  0  0  0  0  0
  -31.7725   73.0646   41.8004 H   0  0  0  0  0  0  0  0  0  0  0  0
  -34.3661   73.6633   39.6979 H   0  0  0  0  0  0  0  0  0  0  0  0
  1  4  1  0  0  0
  1  5  1  0  0  0
  1  6  1  0  0  0
  2  4  1  0  0  0
  2  7  1  0  0  0
  2  8  1  0  0  0
  3  4  2  0  0  0
  3  9  1  0  0  0
M  END
> <minimizedAffinity>
-1.32699

$$$$
3520


  9  8  0  0  0  0  0  0  0  0999 V2000
  -33.1501   73.9064   39.8543 N   0  0  0  0  0  0  0  0  0  0  0  0
  -33.1563   71.6276   40.1333 N   0  0  0  0  0  0  0  0  0  0  0  0
  -31.7962   72.9460   41.5209 N   0  0  0  0  0  0  0  0  0  0  0  0
  -32.6582   72.8338   40.5507 C   0  0  0  0  0  0  0  0  0  0  0  0
  -32.8564   74.8527   40.0713 H   0  0  0  0  0  0  0  0  0  0  0  0
  -33.8217   73.7877   39.1037 H   0  0  0  0  0  0  0  0  0  0  0  0
  -32.8694   70.7580   40.5694 H   0  0  0  0  0  0  0  0  0  0  0  0
  -33.8263   71.5670   39.3744 H   0  0  0  0  0  0  0  0  0  0  0  0
  -31.5841   72.0089   41.8808 H   0  0  0  0  0  0  0  0  0  0  0  0
  1  4  1  0  0  0
  1  5  1  0  0  0
  1  6  1  0  0  0
  2  4  1  0  0  0
  2  7  1  0  0  0
  2  8  1  0  0  0
  3  4  2  0  0  0
  3  9  1  0  0  0
M  END
> <minimizedAffinity>
-1.31730

$$$$
3520


  9  8  0  0  0  0  0  0  0  0999 V2000
  -33.6972   70.9266   39.5117 N   0  0  0  0  0  0  0  0  0  0  0  0
  -35.9789   71.0216   39.2757 N   0  0  0  0  0  0  0  0  0  0  0  0
  -34.9681   72.1368   41.0780 N   0  0  0  0  0  0  0  0  0  0  0  0
  -34.8840   71.3982   40.0082 C   0  0  0  0  0  0  0  0  0  0  0  0
  -32.8161   71.1387   39.9672 H   0  0  0  0  0  0  0  0  0  0  0  0
  -33.6631   70.3539   38.6754 H   0  0  0  0  0  0  0  0  0  0  0  0
  -36.9154   71.3067   39.5406 H   0  0  0  0  0  0  0  0  0  0  0  0
  -35.8867   70.4449   38.4465 H   0  0  0  0  0  0  0  0  0  0  0  0
  -35.9554   72.3610   41.2446 H   0  0  0  0  0  0  0  0  0  0  0  0
  1  4  1  0  0  0
  1  5  1  0  0  0
  1  6  1  0  0  0
  2  4  1  0  0  0
  2  7  1  0  0  0
  2  8  1  0  0  0
  3  4  2  0  0  0
  3  9  1  0  0  0
M  END
> <minimizedAffinity>
-1.31440

$$$$
3520


  9  8  0  0  0  0  0  0  0  0999 V2000
  -42.2566   62.4871   44.4105 N   0  0  0  0  0  0  0  0  0  0  0  0
  -43.4770   60.8426   43.3725 N   0  0  0  0  0  0  0  0  0  0  0  0
  -42.2291   62.3398   42.0630 N   0  0  0  0  0  0  0  0  0  0  0  0
  -42.6334   61.9121   43.2252 C   0  0  0  0  0  0  0  0  0  0  0  0
  -41.6333   63.2869   44.4313 H   0  0  0  0  0  0  0  0  0  0  0  0
  -42.5873   62.1310   45.3007 H   0  0  0  0  0  0  0  0  0  0  0  0
  -43.8275   60.3316   42.5697 H   0  0  0  0  0  0  0  0  0  0  0  0
  -43.7779   60.5296   44.2891 H   0  0  0  0  0  0  0  0  0  0  0  0
  -42.6452   61.7499   41.3339 H   0  0  0  0  0  0  0  0  0  0  0  0
  1  4  1  0  0  0
  1  5  1  0  0  0
  1  6  1  0  0  0
  2  4  1  0  0  0
  2  7  1  0  0  0
  2  8  1  0  0  0
  3  4  2  0  0  0
  3  9  1  0  0  0
M  END
> <minimizedAffinity>
-1.25206

$$$$
3520


  9  8  0  0  0  0  0  0  0  0999 V2000
  -40.5474   64.6774   38.5603 N   0  0  0  0  0  0  0  0  0  0  0  0
  -40.4344   66.1583   36.8096 N   0  0  0  0  0  0  0  0  0  0  0  0
  -40.2104   63.8607   36.3803 N   0  0  0  0  0  0  0  0  0  0  0  0
  -40.3887   64.8489   37.2102 C   0  0  0  0  0  0  0  0  0  0  0  0
  -40.5324   63.7531   38.9775 H   0  0  0  0  0  0  0  0  0  0  0  0
  -40.6854   65.4668   39.1819 H   0  0  0  0  0  0  0  0  0  0  0  0
  -40.3293   66.4165   35.8345 H   0  0  0  0  0  0  0  0  0  0  0  0
  -40.5736   66.9100   37.4761 H   0  0  0  0  0  0  0  0  0  0  0  0
  -40.1182   64.2416   35.4321 H   0  0  0  0  0  0  0  0  0  0  0  0
  1  4  1  0  0  0
  1  5  1  0  0  0
  1  6  1  0  0  0
  2  4  1  0  0  0
  2  7  1  0  0  0
  2  8  1  0  0  0
  3  4  2  0  0  0
  3  9  1  0  0  0
M  END
> <minimizedAffinity>
-1.23800

$$$$
3520


  9  8  0  0  0  0  0  0  0  0999 V2000
  -47.5747   67.7626   35.2420 N   0  0  0  0  0  0  0  0  0  0  0  0
  -47.9925   67.0191   33.1104 N   0  0  0  0  0  0  0  0  0  0  0  0
  -48.9276   65.8641   34.9285 N   0  0  0  0  0  0  0  0  0  0  0  0
  -48.2006   66.8344   34.4520 C   0  0  0  0  0  0  0  0  0  0  0  0
  -47.6541   67.7311   36.2526 H   0  0  0  0  0  0  0  0  0  0  0  0
  -47.0154   68.5080   34.8418 H   0  0  0  0  0  0  0  0  0  0  0  0
  -48.4022   66.3975   32.4217 H   0  0  0  0  0  0  0  0  0  0  0  0
  -47.4211   67.7824   32.7648 H   0  0  0  0  0  0  0  0  0  0  0  0
  -49.2857   65.3075   34.1445 H   0  0  0  0  0  0  0  0  0  0  0  0
  1  4  1  0  0  0
  1  5  1  0  0  0
  1  6  1  0  0  0
  2  4  1  0  0  0
  2  7  1  0  0  0
  2  8  1  0  0  0
  3  4  2  0  0  0
  3  9  1  0  0  0
M  END
> <minimizedAffinity>
-1.23618

$$$$
3520


  9  8  0  0  0  0  0  0  0  0999 V2000
  -42.4398   64.5132   37.2225 N   0  0  0  0  0  0  0  0  0  0  0  0
  -41.1378   62.6506   36.8962 N   0  0  0  0  0  0  0  0  0  0  0  0
  -40.1069   64.6801   37.4724 N   0  0  0  0  0  0  0  0  0  0  0  0
  -41.1761   63.9837   37.2102 C   0  0  0  0  0  0  0  0  0  0  0  0
  -42.5974   65.4909   37.4415 H   0  0  0  0  0  0  0  0  0  0  0  0
  -43.2541   63.9453   37.0148 H   0  0  0  0  0  0  0  0  0  0  0  0
  -40.2609   62.1428   36.8538 H   0  0  0  0  0  0  0  0  0  0  0  0
  -41.9851   62.1308   36.6951 H   0  0  0  0  0  0  0  0  0  0  0  0
  -39.2891   64.0648   37.3996 H   0  0  0  0  0  0  0  0  0  0  0  0
  1  4  1  0  0  0
  1  5  1  0  0  0
  1  6  1  0  0  0
  2  4  1  0  0  0
  2  7  1  0  0  0
  2  8  1  0  0  0
  3  4  2  0  0  0
  3  9  1  0  0  0
M  END
> <minimizedAffinity>
-1.15255

$$$$
3520


  9  8  0  0  0  0  0  0  0  0999 V2000
  -41.8546   69.1164   35.0562 N   0  0  0  0  0  0  0  0  0  0  0  0
  -43.1605   70.7967   35.9176 N   0  0  0  0  0  0  0  0  0  0  0  0
  -41.4285   71.3431   34.4292 N   0  0  0  0  0  0  0  0  0  0  0  0
  -42.1131   70.4613   35.1005 C   0  0  0  0  0  0  0  0  0  0  0  0
  -41.1028   68.7447   34.4857 H   0  0  0  0  0  0  0  0  0  0  0  0
  -42.4059   68.4532   35.5898 H   0  0  0  0  0  0  0  0  0  0  0  0
  -43.4505   71.7613   36.0357 H   0  0  0  0  0  0  0  0  0  0  0  0
  -43.6773   70.0908   36.4306 H   0  0  0  0  0  0  0  0  0  0  0  0
  -41.8110   72.2745   34.6268 H   0  0  0  0  0  0  0  0  0  0  0  0
  1  4  1  0  0  0
  1  5  1  0  0  0
  1  6  1  0  0  0
  2  4  1  0  0  0
  2  7  1  0  0  0
  2  8  1  0  0  0
  3  4  2  0  0  0
  3  9  1  0  0  0
M  END
> <minimizedAffinity>
-0.80331

$$$$
3520


  9  8  0  0  0  0  0  0  0  0999 V2000
  -46.7351   69.0736   35.8292 N   0  0  0  0  0  0  0  0  0  0  0  0
  -46.8694   71.3458   36.1291 N   0  0  0  0  0  0  0  0  0  0  0  0
  -45.3401   70.4866   34.5682 N   0  0  0  0  0  0  0  0  0  0  0  0
  -46.2688   70.3092   35.4643 C   0  0  0  0  0  0  0  0  0  0  0  0
  -46.3678   68.2279   35.4066 H   0  0  0  0  0  0  0  0  0  0  0  0
  -47.4604   68.9669   36.5301 H   0  0  0  0  0  0  0  0  0  0  0  0
  -46.6112   72.3097   35.9484 H   0  0  0  0  0  0  0  0  0  0  0  0
  -47.5899   71.1810   36.8236 H   0  0  0  0  0  0  0  0  0  0  0  0
  -45.1655   71.4931   34.4720 H   0  0  0  0  0  0  0  0  0  0  0  0
  1  4  1  0  0  0
  1  5  1  0  0  0
  1  6  1  0  0  0
  2  4  1  0  0  0
  2  7  1  0  0  0
  2  8  1  0  0  0
  3  4  2  0  0  0
  3  9  1  0  0  0
M  END
> <minimizedAffinity>
-0.79429

$$$$
