795


  6  6  0  0  0  0  0  0  0  0999 V2000
  -45.3056   72.2785   26.4571 N   0  0  0  0  0  0  0  0  0  0  0  0
  -46.8025   73.7836   25.8040 N   0  0  0  0  0  0  0  0  0  0  0  0
  -46.4876   71.9046   27.0319 C   0  0  0  0  0  0  0  0  0  0  0  0
  -45.5439   73.4115   25.7298 C   0  0  0  0  0  0  0  0  0  0  0  0
  -47.3961   72.8488   26.6146 C   0  0  0  0  0  0  0  0  0  0  0  0
  -44.4174   71.8045   26.5519 H   0  0  0  0  0  0  0  0  0  0  0  0
  1  3  1  0  0  0
  1  4  1  0  0  0
  1  6  1  0  0  0
  2  4  2  0  0  0
  2  5  1  0  0  0
  3  5  2  0  0  0
M  END
> <minimizedAffinity>
-3.29249

$$$$
795


  6  6  0  0  0  0  0  0  0  0999 V2000
  -47.3298   73.0875   26.4883 N   0  0  0  0  0  0  0  0  0  0  0  0
  -46.5154   71.1420   27.1842 N   0  0  0  0  0  0  0  0  0  0  0  0
  -48.3658   72.4488   27.1095 C   0  0  0  0  0  0  0  0  0  0  0  0
  -46.2401   72.2645   26.5579 C   0  0  0  0  0  0  0  0  0  0  0  0
  -47.8391   71.2502   27.5301 C   0  0  0  0  0  0  0  0  0  0  0  0
  -47.3624   74.0012   26.0562 H   0  0  0  0  0  0  0  0  0  0  0  0
  1  3  1  0  0  0
  1  4  1  0  0  0
  1  6  1  0  0  0
  2  4  2  0  0  0
  2  5  1  0  0  0
  3  5  2  0  0  0
M  END
> <minimizedAffinity>
-3.28227

$$$$
795


  6  6  0  0  0  0  0  0  0  0999 V2000
  -36.2020   63.9426   31.6199 N   0  0  0  0  0  0  0  0  0  0  0  0
  -37.5568   62.2402   31.1743 N   0  0  0  0  0  0  0  0  0  0  0  0
  -37.4500   64.3477   32.0014 C   0  0  0  0  0  0  0  0  0  0  0  0
  -36.3158   62.6714   31.1295 C   0  0  0  0  0  0  0  0  0  0  0  0
  -38.2690   63.2806   31.7164 C   0  0  0  0  0  0  0  0  0  0  0  0
  -35.3502   64.4834   31.6877 H   0  0  0  0  0  0  0  0  0  0  0  0
  1  3  1  0  0  0
  1  4  1  0  0  0
  1  6  1  0  0  0
  2  4  2  0  0  0
  2  5  1  0  0  0
  3  5  2  0  0  0
M  END
> <minimizedAffinity>
-2.94640

$$$$
795


  6  6  0  0  0  0  0  0  0  0999 V2000
  -36.5889   61.8140   30.9010 N   0  0  0  0  0  0  0  0  0  0  0  0
  -36.6152   63.4599   32.3919 N   0  0  0  0  0  0  0  0  0  0  0  0
  -37.3266   61.3527   31.9547 C   0  0  0  0  0  0  0  0  0  0  0  0
  -36.1830   63.0827   31.2091 C   0  0  0  0  0  0  0  0  0  0  0  0
  -37.3283   62.3858   32.8623 C   0  0  0  0  0  0  0  0  0  0  0  0
  -36.3811   61.3098   30.0494 H   0  0  0  0  0  0  0  0  0  0  0  0
  1  3  1  0  0  0
  1  4  1  0  0  0
  1  6  1  0  0  0
  2  4  2  0  0  0
  2  5  1  0  0  0
  3  5  2  0  0  0
M  END
> <minimizedAffinity>
-2.85931

$$$$
795


  6  6  0  0  0  0  0  0  0  0999 V2000
  -36.8212   64.3463   31.1042 N   0  0  0  0  0  0  0  0  0  0  0  0
  -37.8018   63.4684   32.8932 N   0  0  0  0  0  0  0  0  0  0  0  0
  -36.2443   63.1207   31.2836 C   0  0  0  0  0  0  0  0  0  0  0  0
  -37.7497   64.5111   32.0943 C   0  0  0  0  0  0  0  0  0  0  0  0
  -36.8654   62.5983   32.3936 C   0  0  0  0  0  0  0  0  0  0  0  0
  -36.6020   65.0101   30.3735 H   0  0  0  0  0  0  0  0  0  0  0  0
  1  3  1  0  0  0
  1  4  1  0  0  0
  1  6  1  0  0  0
  2  4  2  0  0  0
  2  5  1  0  0  0
  3  5  2  0  0  0
M  END
> <minimizedAffinity>
-2.85642

$$$$
795


  6  6  0  0  0  0  0  0  0  0999 V2000
  -38.2834   60.2165   33.4453 N   0  0  0  0  0  0  0  0  0  0  0  0
  -37.3363   62.0127   34.3450 N   0  0  0  0  0  0  0  0  0  0  0  0
  -39.1950   60.7155   34.3325 C   0  0  0  0  0  0  0  0  0  0  0  0
  -37.1837   61.0280   33.4876 C   0  0  0  0  0  0  0  0  0  0  0  0
  -38.5878   61.8234   34.8755 C   0  0  0  0  0  0  0  0  0  0  0  0
  -38.4001   59.3974   32.8640 H   0  0  0  0  0  0  0  0  0  0  0  0
  1  3  1  0  0  0
  1  4  1  0  0  0
  1  6  1  0  0  0
  2  4  2  0  0  0
  2  5  1  0  0  0
  3  5  2  0  0  0
M  END
> <minimizedAffinity>
-2.77111

$$$$
795


  6  6  0  0  0  0  0  0  0  0999 V2000
  -36.9839   64.4074   31.2875 N   0  0  0  0  0  0  0  0  0  0  0  0
  -36.8755   62.7165   32.7233 N   0  0  0  0  0  0  0  0  0  0  0  0
  -38.2206   64.3250   31.8628 C   0  0  0  0  0  0  0  0  0  0  0  0
  -36.2107   63.4218   31.8353 C   0  0  0  0  0  0  0  0  0  0  0  0
  -38.1293   63.2741   32.7449 C   0  0  0  0  0  0  0  0  0  0  0  0
  -36.6935   65.0747   30.5854 H   0  0  0  0  0  0  0  0  0  0  0  0
  1  3  1  0  0  0
  1  4  1  0  0  0
  1  6  1  0  0  0
  2  4  2  0  0  0
  2  5  1  0  0  0
  3  5  2  0  0  0
M  END
> <minimizedAffinity>
-2.76599

$$$$
795


  6  6  0  0  0  0  0  0  0  0999 V2000
  -37.6712   61.6623   34.7400 N   0  0  0  0  0  0  0  0  0  0  0  0
  -38.3092   60.2304   33.1667 N   0  0  0  0  0  0  0  0  0  0  0  0
  -38.9952   61.4169   34.9720 C   0  0  0  0  0  0  0  0  0  0  0  0
  -37.3038   60.9284   33.6465 C   0  0  0  0  0  0  0  0  0  0  0  0
  -39.3667   60.5309   33.9882 C   0  0  0  0  0  0  0  0  0  0  0  0
  -37.0724   62.2744   35.2780 H   0  0  0  0  0  0  0  0  0  0  0  0
  1  3  1  0  0  0
  1  4  1  0  0  0
  1  6  1  0  0  0
  2  4  2  0  0  0
  2  5  1  0  0  0
  3  5  2  0  0  0
M  END
> <minimizedAffinity>
-2.74538

$$$$
795


  6  6  0  0  0  0  0  0  0  0999 V2000
  -33.7763   70.7494   30.4469 N   0  0  0  0  0  0  0  0  0  0  0  0
  -34.0338   72.8635   31.0765 N   0  0  0  0  0  0  0  0  0  0  0  0
  -32.5170   71.2753   30.5159 C   0  0  0  0  0  0  0  0  0  0  0  0
  -34.6536   71.7397   30.7918 C   0  0  0  0  0  0  0  0  0  0  0  0
  -32.7017   72.5810   30.9059 C   0  0  0  0  0  0  0  0  0  0  0  0
  -34.0159   69.8016   30.1883 H   0  0  0  0  0  0  0  0  0  0  0  0
  1  3  1  0  0  0
  1  4  1  0  0  0
  1  6  1  0  0  0
  2  4  2  0  0  0
  2  5  1  0  0  0
  3  5  2  0  0  0
M  END
> <minimizedAffinity>
-2.74160

$$$$
795


  6  6  0  0  0  0  0  0  0  0999 V2000
  -37.7679   61.7045   34.8250 N   0  0  0  0  0  0  0  0  0  0  0  0
  -39.3826   60.4466   33.9631 N   0  0  0  0  0  0  0  0  0  0  0  0
  -37.2365   61.1287   33.7054 C   0  0  0  0  0  0  0  0  0  0  0  0
  -39.0577   61.2654   34.9389 C   0  0  0  0  0  0  0  0  0  0  0  0
  -38.2516   60.3568   33.1910 C   0  0  0  0  0  0  0  0  0  0  0  0
  -37.2944   62.3390   35.4542 H   0  0  0  0  0  0  0  0  0  0  0  0
  1  3  1  0  0  0
  1  4  1  0  0  0
  1  6  1  0  0  0
  2  4  2  0  0  0
  2  5  1  0  0  0
  3  5  2  0  0  0
M  END
> <minimizedAffinity>
-2.74106

$$$$
795


  6  6  0  0  0  0  0  0  0  0999 V2000
  -39.1981   60.8499   34.4704 N   0  0  0  0  0  0  0  0  0  0  0  0
  -37.3519   62.0726   34.3006 N   0  0  0  0  0  0  0  0  0  0  0  0
  -38.4233   60.2293   33.5314 C   0  0  0  0  0  0  0  0  0  0  0  0
  -38.5138   61.9514   34.9035 C   0  0  0  0  0  0  0  0  0  0  0  0
  -37.2895   61.0025   33.4436 C   0  0  0  0  0  0  0  0  0  0  0  0
  -40.1104   60.5498   34.7872 H   0  0  0  0  0  0  0  0  0  0  0  0
  1  3  1  0  0  0
  1  4  1  0  0  0
  1  6  1  0  0  0
  2  4  2  0  0  0
  2  5  1  0  0  0
  3  5  2  0  0  0
M  END
> <minimizedAffinity>
-2.72993

$$$$
795


  6  6  0  0  0  0  0  0  0  0999 V2000
  -36.3747   70.1648   28.1177 N   0  0  0  0  0  0  0  0  0  0  0  0
  -35.7797   70.1549   30.2574 N   0  0  0  0  0  0  0  0  0  0  0  0
  -37.3087   69.4038   28.7622 C   0  0  0  0  0  0  0  0  0  0  0  0
  -35.4772   70.5937   29.0557 C   0  0  0  0  0  0  0  0  0  0  0  0
  -36.9202   69.4120   30.0813 C   0  0  0  0  0  0  0  0  0  0  0  0
  -36.3511   70.3729   27.1283 H   0  0  0  0  0  0  0  0  0  0  0  0
  1  3  1  0  0  0
  1  4  1  0  0  0
  1  6  1  0  0  0
  2  4  2  0  0  0
  2  5  1  0  0  0
  3  5  2  0  0  0
M  END
> <minimizedAffinity>
-2.68884

$$$$
795


  6  6  0  0  0  0  0  0  0  0999 V2000
  -37.8459   61.9325   32.0903 N   0  0  0  0  0  0  0  0  0  0  0  0
  -36.2748   62.9715   30.9136 N   0  0  0  0  0  0  0  0  0  0  0  0
  -37.9337   63.2526   32.4322 C   0  0  0  0  0  0  0  0  0  0  0  0
  -36.8361   61.8122   31.1764 C   0  0  0  0  0  0  0  0  0  0  0  0
  -36.9541   63.8735   31.6936 C   0  0  0  0  0  0  0  0  0  0  0  0
  -38.4218   61.1819   32.4475 H   0  0  0  0  0  0  0  0  0  0  0  0
  1  3  1  0  0  0
  1  4  1  0  0  0
  1  6  1  0  0  0
  2  4  2  0  0  0
  2  5  1  0  0  0
  3  5  2  0  0  0
M  END
> <minimizedAffinity>
-2.66399

$$$$
795


  6  6  0  0  0  0  0  0  0  0999 V2000
  -40.3659   60.3772   36.0429 N   0  0  0  0  0  0  0  0  0  0  0  0
  -40.1279   60.4587   33.8363 N   0  0  0  0  0  0  0  0  0  0  0  0
  -41.6178   60.2003   35.5247 C   0  0  0  0  0  0  0  0  0  0  0  0
  -39.5048   60.5283   34.9917 C   0  0  0  0  0  0  0  0  0  0  0  0
  -41.4455   60.2549   34.1615 C   0  0  0  0  0  0  0  0  0  0  0  0
  -40.1208   60.3935   37.0238 H   0  0  0  0  0  0  0  0  0  0  0  0
  1  3  1  0  0  0
  1  4  1  0  0  0
  1  6  1  0  0  0
  2  4  2  0  0  0
  2  5  1  0  0  0
  3  5  2  0  0  0
M  END
> <minimizedAffinity>
-2.65046

$$$$
795


  6  6  0  0  0  0  0  0  0  0999 V2000
  -37.3485   61.2054   34.3628 N   0  0  0  0  0  0  0  0  0  0  0  0
  -37.8346   62.9045   33.0177 N   0  0  0  0  0  0  0  0  0  0  0  0
  -38.5212   61.7288   34.8298 C   0  0  0  0  0  0  0  0  0  0  0  0
  -36.9747   61.9438   33.2745 C   0  0  0  0  0  0  0  0  0  0  0  0
  -38.8007   62.7763   33.9839 C   0  0  0  0  0  0  0  0  0  0  0  0
  -36.8484   60.4166   34.7506 H   0  0  0  0  0  0  0  0  0  0  0  0
  1  3  1  0  0  0
  1  4  1  0  0  0
  1  6  1  0  0  0
  2  4  2  0  0  0
  2  5  1  0  0  0
  3  5  2  0  0  0
M  END
> <minimizedAffinity>
-2.64971

$$$$
795


  6  6  0  0  0  0  0  0  0  0999 V2000
  -40.5487   60.5107   36.2100 N   0  0  0  0  0  0  0  0  0  0  0  0
  -41.5728   60.1526   34.2721 N   0  0  0  0  0  0  0  0  0  0  0  0
  -39.5887   60.6513   35.2478 C   0  0  0  0  0  0  0  0  0  0  0  0
  -41.7230   60.2115   35.5767 C   0  0  0  0  0  0  0  0  0  0  0  0
  -40.2446   60.4253   34.0605 C   0  0  0  0  0  0  0  0  0  0  0  0
  -40.4156   60.6097   37.2075 H   0  0  0  0  0  0  0  0  0  0  0  0
  1  3  1  0  0  0
  1  4  1  0  0  0
  1  6  1  0  0  0
  2  4  2  0  0  0
  2  5  1  0  0  0
  3  5  2  0  0  0
M  END
> <minimizedAffinity>
-2.62996

$$$$
795


  6  6  0  0  0  0  0  0  0  0999 V2000
  -32.0707   72.1377   30.9231 N   0  0  0  0  0  0  0  0  0  0  0  0
  -33.1518   70.7033   29.6168 N   0  0  0  0  0  0  0  0  0  0  0  0
  -33.3921   72.4750   31.0099 C   0  0  0  0  0  0  0  0  0  0  0  0
  -31.9754   71.0690   30.0756 C   0  0  0  0  0  0  0  0  0  0  0  0
  -34.0392   71.5760   30.1950 C   0  0  0  0  0  0  0  0  0  0  0  0
  -31.3038   72.5943   31.3982 H   0  0  0  0  0  0  0  0  0  0  0  0
  1  3  1  0  0  0
  1  4  1  0  0  0
  1  6  1  0  0  0
  2  4  2  0  0  0
  2  5  1  0  0  0
  3  5  2  0  0  0
M  END
> <minimizedAffinity>
-2.60488

$$$$
795


  6  6  0  0  0  0  0  0  0  0999 V2000
  -35.5338   70.6644   27.7990 N   0  0  0  0  0  0  0  0  0  0  0  0
  -34.8909   70.6304   29.9246 N   0  0  0  0  0  0  0  0  0  0  0  0
  -34.2412   71.1076   27.8062 C   0  0  0  0  0  0  0  0  0  0  0  0
  -35.8803   70.3904   29.0930 C   0  0  0  0  0  0  0  0  0  0  0  0
  -33.8664   71.0783   29.1289 C   0  0  0  0  0  0  0  0  0  0  0  0
  -36.1259   70.5583   26.9861 H   0  0  0  0  0  0  0  0  0  0  0  0
  1  3  1  0  0  0
  1  4  1  0  0  0
  1  6  1  0  0  0
  2  4  2  0  0  0
  2  5  1  0  0  0
  3  5  2  0  0  0
M  END
> <minimizedAffinity>
-2.60055

$$$$
795


  6  6  0  0  0  0  0  0  0  0999 V2000
  -38.2325   62.4114   32.3747 N   0  0  0  0  0  0  0  0  0  0  0  0
  -36.3800   63.6183   32.1649 N   0  0  0  0  0  0  0  0  0  0  0  0
  -38.6265   63.6161   31.8640 C   0  0  0  0  0  0  0  0  0  0  0  0
  -36.8760   62.4597   32.5387 C   0  0  0  0  0  0  0  0  0  0  0  0
  -37.4660   64.3440   31.7438 C   0  0  0  0  0  0  0  0  0  0  0  0
  -38.8336   61.6277   32.5916 H   0  0  0  0  0  0  0  0  0  0  0  0
  1  3  1  0  0  0
  1  4  1  0  0  0
  1  6  1  0  0  0
  2  4  2  0  0  0
  2  5  1  0  0  0
  3  5  2  0  0  0
M  END
> <minimizedAffinity>
-2.59441

$$$$
795


  6  6  0  0  0  0  0  0  0  0999 V2000
  -38.0753   65.2856   32.3748 N   0  0  0  0  0  0  0  0  0  0  0  0
  -38.2312   63.3043   31.3836 N   0  0  0  0  0  0  0  0  0  0  0  0
  -39.2913   64.7797   32.7389 C   0  0  0  0  0  0  0  0  0  0  0  0
  -37.4753   64.3650   31.5612 C   0  0  0  0  0  0  0  0  0  0  0  0
  -39.3650   63.5567   32.1146 C   0  0  0  0  0  0  0  0  0  0  0  0
  -37.6894   66.1773   32.6554 H   0  0  0  0  0  0  0  0  0  0  0  0
  1  3  1  0  0  0
  1  4  1  0  0  0
  1  6  1  0  0  0
  2  4  2  0  0  0
  2  5  1  0  0  0
  3  5  2  0  0  0
M  END
> <minimizedAffinity>
-2.59408

$$$$
795


  6  6  0  0  0  0  0  0  0  0999 V2000
  -40.0826   60.1537   35.7339 N   0  0  0  0  0  0  0  0  0  0  0  0
  -39.4744   62.2024   35.1296 N   0  0  0  0  0  0  0  0  0  0  0  0
  -41.0139   60.9951   36.2742 C   0  0  0  0  0  0  0  0  0  0  0  0
  -39.1786   60.9237   35.0562 C   0  0  0  0  0  0  0  0  0  0  0  0
  -40.6171   62.2539   35.8880 C   0  0  0  0  0  0  0  0  0  0  0  0
  -40.0648   59.1462   35.8195 H   0  0  0  0  0  0  0  0  0  0  0  0
  1  3  1  0  0  0
  1  4  1  0  0  0
  1  6  1  0  0  0
  2  4  2  0  0  0
  2  5  1  0  0  0
  3  5  2  0  0  0
M  END
> <minimizedAffinity>
-2.55443

$$$$
795


  6  6  0  0  0  0  0  0  0  0999 V2000
  -44.1152   60.4120   33.9644 N   0  0  0  0  0  0  0  0  0  0  0  0
  -42.6008   59.7998   35.4692 N   0  0  0  0  0  0  0  0  0  0  0  0
  -44.4520   61.0600   35.1193 C   0  0  0  0  0  0  0  0  0  0  0  0
  -42.9979   59.6676   34.2230 C   0  0  0  0  0  0  0  0  0  0  0  0
  -43.5033   60.6661   36.0335 C   0  0  0  0  0  0  0  0  0  0  0  0
  -44.6025   60.4719   33.0803 H   0  0  0  0  0  0  0  0  0  0  0  0
  1  3  1  0  0  0
  1  4  1  0  0  0
  1  6  1  0  0  0
  2  4  2  0  0  0
  2  5  1  0  0  0
  3  5  2  0  0  0
M  END
> <minimizedAffinity>
-2.54486

$$$$
795


  6  6  0  0  0  0  0  0  0  0999 V2000
  -34.5699   70.7568   30.6351 N   0  0  0  0  0  0  0  0  0  0  0  0
  -35.4151   70.6711   28.5831 N   0  0  0  0  0  0  0  0  0  0  0  0
  -35.8672   70.3533   30.7813 C   0  0  0  0  0  0  0  0  0  0  0  0
  -34.3443   70.9353   29.2984 C   0  0  0  0  0  0  0  0  0  0  0  0
  -36.3682   70.3082   29.5015 C   0  0  0  0  0  0  0  0  0  0  0  0
  -33.8992   70.8977   31.3787 H   0  0  0  0  0  0  0  0  0  0  0  0
  1  3  1  0  0  0
  1  4  1  0  0  0
  1  6  1  0  0  0
  2  4  2  0  0  0
  2  5  1  0  0  0
  3  5  2  0  0  0
M  END
> <minimizedAffinity>
-2.53312

$$$$
795


  6  6  0  0  0  0  0  0  0  0999 V2000
  -36.9419   69.9985   27.7760 N   0  0  0  0  0  0  0  0  0  0  0  0
  -38.7658   69.4748   28.9299 N   0  0  0  0  0  0  0  0  0  0  0  0
  -37.9120   70.8642   27.3558 C   0  0  0  0  0  0  0  0  0  0  0  0
  -37.5011   69.1836   28.7208 C   0  0  0  0  0  0  0  0  0  0  0  0
  -39.0284   70.5213   28.0817 C   0  0  0  0  0  0  0  0  0  0  0  0
  -35.9856   69.9660   27.4486 H   0  0  0  0  0  0  0  0  0  0  0  0
  1  3  1  0  0  0
  1  4  1  0  0  0
  1  6  1  0  0  0
  2  4  2  0  0  0
  2  5  1  0  0  0
  3  5  2  0  0  0
M  END
> <minimizedAffinity>
-2.52629

$$$$
795


  6  6  0  0  0  0  0  0  0  0999 V2000
  -38.5229   63.8304   32.3758 N   0  0  0  0  0  0  0  0  0  0  0  0
  -36.7765   62.5207   32.7848 N   0  0  0  0  0  0  0  0  0  0  0  0
  -37.4898   64.3449   31.6443 C   0  0  0  0  0  0  0  0  0  0  0  0
  -38.0470   62.7365   33.0440 C   0  0  0  0  0  0  0  0  0  0  0  0
  -36.4228   63.5201   31.9133 C   0  0  0  0  0  0  0  0  0  0  0  0
  -39.4664   64.1919   32.4160 H   0  0  0  0  0  0  0  0  0  0  0  0
  1  3  1  0  0  0
  1  4  1  0  0  0
  1  6  1  0  0  0
  2  4  2  0  0  0
  2  5  1  0  0  0
  3  5  2  0  0  0
M  END
> <minimizedAffinity>
-2.52538

$$$$
795


  6  6  0  0  0  0  0  0  0  0999 V2000
  -38.4862   66.7366   32.1094 N   0  0  0  0  0  0  0  0  0  0  0  0
  -38.1511   65.2117   30.5299 N   0  0  0  0  0  0  0  0  0  0  0  0
  -38.5815   67.4026   30.9201 C   0  0  0  0  0  0  0  0  0  0  0  0
  -38.2269   65.4247   31.8249 C   0  0  0  0  0  0  0  0  0  0  0  0
  -38.3707   66.4408   29.9602 C   0  0  0  0  0  0  0  0  0  0  0  0
  -38.5886   67.1397   33.0312 H   0  0  0  0  0  0  0  0  0  0  0  0
  1  3  1  0  0  0
  1  4  1  0  0  0
  1  6  1  0  0  0
  2  4  2  0  0  0
  2  5  1  0  0  0
  3  5  2  0  0  0
M  END
> <minimizedAffinity>
-2.51494

$$$$
795


  6  6  0  0  0  0  0  0  0  0999 V2000
  -40.3671   60.4430   33.6823 N   0  0  0  0  0  0  0  0  0  0  0  0
  -39.7099   60.6661   35.7920 N   0  0  0  0  0  0  0  0  0  0  0  0
  -39.3579   61.3641   33.6645 C   0  0  0  0  0  0  0  0  0  0  0  0
  -40.5429   60.0527   34.9808 C   0  0  0  0  0  0  0  0  0  0  0  0
  -38.9688   61.4854   34.9778 C   0  0  0  0  0  0  0  0  0  0  0  0
  -40.8886   60.1107   32.8822 H   0  0  0  0  0  0  0  0  0  0  0  0
  1  3  1  0  0  0
  1  4  1  0  0  0
  1  6  1  0  0  0
  2  4  2  0  0  0
  2  5  1  0  0  0
  3  5  2  0  0  0
M  END
> <minimizedAffinity>
-2.46665

$$$$
795


  6  6  0  0  0  0  0  0  0  0999 V2000
  -37.8505   66.5515   29.4399 N   0  0  0  0  0  0  0  0  0  0  0  0
  -38.9573   68.4054   29.9600 N   0  0  0  0  0  0  0  0  0  0  0  0
  -38.8521   66.1647   30.2851 C   0  0  0  0  0  0  0  0  0  0  0  0
  -37.9536   67.9048   29.2744 C   0  0  0  0  0  0  0  0  0  0  0  0
  -39.5213   67.3260   30.5927 C   0  0  0  0  0  0  0  0  0  0  0  0
  -37.1595   65.9479   29.0146 H   0  0  0  0  0  0  0  0  0  0  0  0
  1  3  1  0  0  0
  1  4  1  0  0  0
  1  6  1  0  0  0
  2  4  2  0  0  0
  2  5  1  0  0  0
  3  5  2  0  0  0
M  END
> <minimizedAffinity>
-2.46293

$$$$
795


  6  6  0  0  0  0  0  0  0  0999 V2000
  -39.8632   60.9312   33.6933 N   0  0  0  0  0  0  0  0  0  0  0  0
  -39.8787   60.6022   35.8896 N   0  0  0  0  0  0  0  0  0  0  0  0
  -41.0784   60.3759   33.9799 C   0  0  0  0  0  0  0  0  0  0  0  0
  -39.1778   61.0476   34.8706 C   0  0  0  0  0  0  0  0  0  0  0  0
  -41.0644   60.1816   35.3412 C   0  0  0  0  0  0  0  0  0  0  0  0
  -39.5313   61.2058   32.7784 H   0  0  0  0  0  0  0  0  0  0  0  0
  1  3  1  0  0  0
  1  4  1  0  0  0
  1  6  1  0  0  0
  2  4  2  0  0  0
  2  5  1  0  0  0
  3  5  2  0  0  0
M  END
> <minimizedAffinity>
-2.45374

$$$$
795


  6  6  0  0  0  0  0  0  0  0999 V2000
  -36.9208   69.9198   28.0976 N   0  0  0  0  0  0  0  0  0  0  0  0
  -37.1401   71.9484   27.2206 N   0  0  0  0  0  0  0  0  0  0  0  0
  -35.7879   70.6013   28.4429 C   0  0  0  0  0  0  0  0  0  0  0  0
  -37.7024   70.7689   27.3645 C   0  0  0  0  0  0  0  0  0  0  0  0
  -35.9461   71.8504   27.8901 C   0  0  0  0  0  0  0  0  0  0  0  0
  -37.1412   68.9630   28.3396 H   0  0  0  0  0  0  0  0  0  0  0  0
  1  3  1  0  0  0
  1  4  1  0  0  0
  1  6  1  0  0  0
  2  4  2  0  0  0
  2  5  1  0  0  0
  3  5  2  0  0  0
M  END
> <minimizedAffinity>
-2.44649

$$$$
795


  6  6  0  0  0  0  0  0  0  0999 V2000
  -38.9419   62.7466   33.7244 N   0  0  0  0  0  0  0  0  0  0  0  0
  -37.0311   61.6476   33.9959 N   0  0  0  0  0  0  0  0  0  0  0  0
  -38.2316   62.9409   32.5733 C   0  0  0  0  0  0  0  0  0  0  0  0
  -38.1811   61.9645   34.5484 C   0  0  0  0  0  0  0  0  0  0  0  0
  -37.0561   62.2536   32.7648 C   0  0  0  0  0  0  0  0  0  0  0  0
  -39.8616   63.1136   33.9296 H   0  0  0  0  0  0  0  0  0  0  0  0
  1  3  1  0  0  0
  1  4  1  0  0  0
  1  6  1  0  0  0
  2  4  2  0  0  0
  2  5  1  0  0  0
  3  5  2  0  0  0
M  END
> <minimizedAffinity>
-2.43287

$$$$
795


  6  6  0  0  0  0  0  0  0  0999 V2000
  -42.0230   59.9575   33.8156 N   0  0  0  0  0  0  0  0  0  0  0  0
  -42.5679   59.9514   35.9687 N   0  0  0  0  0  0  0  0  0  0  0  0
  -40.9355   60.4528   34.4783 C   0  0  0  0  0  0  0  0  0  0  0  0
  -42.9776   59.6707   34.7515 C   0  0  0  0  0  0  0  0  0  0  0  0
  -41.2958   60.4398   35.8053 C   0  0  0  0  0  0  0  0  0  0  0  0
  -42.1069   59.8268   32.8164 H   0  0  0  0  0  0  0  0  0  0  0  0
  1  3  1  0  0  0
  1  4  1  0  0  0
  1  6  1  0  0  0
  2  4  2  0  0  0
  2  5  1  0  0  0
  3  5  2  0  0  0
M  END
> <minimizedAffinity>
-2.39397

$$$$
795


  6  6  0  0  0  0  0  0  0  0999 V2000
  -33.2206   72.8781   38.9920 N   0  0  0  0  0  0  0  0  0  0  0  0
  -32.2489   72.3190   37.0748 N   0  0  0  0  0  0  0  0  0  0  0  0
  -31.9418   73.3538   39.0679 C   0  0  0  0  0  0  0  0  0  0  0  0
  -33.3582   72.2645   37.7780 C   0  0  0  0  0  0  0  0  0  0  0  0
  -31.3618   72.9963   37.8735 C   0  0  0  0  0  0  0  0  0  0  0  0
  -33.9344   72.9638   39.7031 H   0  0  0  0  0  0  0  0  0  0  0  0
  1  3  1  0  0  0
  1  4  1  0  0  0
  1  6  1  0  0  0
  2  4  2  0  0  0
  2  5  1  0  0  0
  3  5  2  0  0  0
M  END
> <minimizedAffinity>
-2.34964

$$$$
795


  6  6  0  0  0  0  0  0  0  0999 V2000
  -38.5841   71.7490   28.6058 N   0  0  0  0  0  0  0  0  0  0  0  0
  -40.6740   71.2762   29.1899 N   0  0  0  0  0  0  0  0  0  0  0  0
  -38.9060   70.5973   27.9446 C   0  0  0  0  0  0  0  0  0  0  0  0
  -39.6762   72.1187   29.3406 C   0  0  0  0  0  0  0  0  0  0  0  0
  -40.2003   70.3252   28.3212 C   0  0  0  0  0  0  0  0  0  0  0  0
  -37.7003   72.2384   28.5602 H   0  0  0  0  0  0  0  0  0  0  0  0
  1  3  1  0  0  0
  1  4  1  0  0  0
  1  6  1  0  0  0
  2  4  2  0  0  0
  2  5  1  0  0  0
  3  5  2  0  0  0
M  END
> <minimizedAffinity>
-2.33134

$$$$
795


  6  6  0  0  0  0  0  0  0  0999 V2000
  -37.5908   69.0734   30.0060 N   0  0  0  0  0  0  0  0  0  0  0  0
  -36.8363   70.2095   31.7588 N   0  0  0  0  0  0  0  0  0  0  0  0
  -36.4918   69.7552   29.5651 C   0  0  0  0  0  0  0  0  0  0  0  0
  -37.7585   69.3775   31.3284 C   0  0  0  0  0  0  0  0  0  0  0  0
  -36.0437   70.4493   30.6643 C   0  0  0  0  0  0  0  0  0  0  0  0
  -38.1736   68.4569   29.4556 H   0  0  0  0  0  0  0  0  0  0  0  0
  1  3  1  0  0  0
  1  4  1  0  0  0
  1  6  1  0  0  0
  2  4  2  0  0  0
  2  5  1  0  0  0
  3  5  2  0  0  0
M  END
> <minimizedAffinity>
-2.30643

$$$$
795


  6  6  0  0  0  0  0  0  0  0999 V2000
  -34.3889   68.3681   38.8866 N   0  0  0  0  0  0  0  0  0  0  0  0
  -34.3060   68.3688   41.1059 N   0  0  0  0  0  0  0  0  0  0  0  0
  -34.8664   67.1495   39.2793 C   0  0  0  0  0  0  0  0  0  0  0  0
  -34.0650   69.0652   40.0173 C   0  0  0  0  0  0  0  0  0  0  0  0
  -34.8052   67.1735   40.6529 C   0  0  0  0  0  0  0  0  0  0  0  0
  -34.2925   68.6948   37.9344 H   0  0  0  0  0  0  0  0  0  0  0  0
  1  3  1  0  0  0
  1  4  1  0  0  0
  1  6  1  0  0  0
  2  4  2  0  0  0
  2  5  1  0  0  0
  3  5  2  0  0  0
M  END
> <minimizedAffinity>
-2.30486

$$$$
795


  6  6  0  0  0  0  0  0  0  0999 V2000
  -39.8849   67.6262   30.6967 N   0  0  0  0  0  0  0  0  0  0  0  0
  -38.7837   65.7754   30.1545 N   0  0  0  0  0  0  0  0  0  0  0  0
  -40.6829   66.5880   31.0871 C   0  0  0  0  0  0  0  0  0  0  0  0
  -38.7562   67.0896   30.1422 C   0  0  0  0  0  0  0  0  0  0  0  0
  -39.9823   65.4563   30.7417 C   0  0  0  0  0  0  0  0  0  0  0  0
  -40.0909   68.6110   30.7989 H   0  0  0  0  0  0  0  0  0  0  0  0
  1  3  1  0  0  0
  1  4  1  0  0  0
  1  6  1  0  0  0
  2  4  2  0  0  0
  2  5  1  0  0  0
  3  5  2  0  0  0
M  END
> <minimizedAffinity>
-2.29463

$$$$
795


  6  6  0  0  0  0  0  0  0  0999 V2000
  -33.2583   70.8145   29.5638 N   0  0  0  0  0  0  0  0  0  0  0  0
  -34.7334   71.0832   27.9255 N   0  0  0  0  0  0  0  0  0  0  0  0
  -32.5290   70.8759   28.4099 C   0  0  0  0  0  0  0  0  0  0  0  0
  -34.5761   70.9434   29.2231 C   0  0  0  0  0  0  0  0  0  0  0  0
  -33.4612   71.0415   27.4126 C   0  0  0  0  0  0  0  0  0  0  0  0
  -32.8911   70.6957   30.4985 H   0  0  0  0  0  0  0  0  0  0  0  0
  1  3  1  0  0  0
  1  4  1  0  0  0
  1  6  1  0  0  0
  2  4  2  0  0  0
  2  5  1  0  0  0
  3  5  2  0  0  0
M  END
> <minimizedAffinity>
-2.29368

$$$$
795


  6  6  0  0  0  0  0  0  0  0999 V2000
  -41.5439   60.4947   34.1858 N   0  0  0  0  0  0  0  0  0  0  0  0
  -42.6456   59.9594   36.0384 N   0  0  0  0  0  0  0  0  0  0  0  0
  -42.8569   60.3883   33.8228 C   0  0  0  0  0  0  0  0  0  0  0  0
  -41.4659   60.2285   35.5246 C   0  0  0  0  0  0  0  0  0  0  0  0
  -43.5171   60.0569   34.9827 C   0  0  0  0  0  0  0  0  0  0  0  0
  -40.7712   60.7276   33.5764 H   0  0  0  0  0  0  0  0  0  0  0  0
  1  3  1  0  0  0
  1  4  1  0  0  0
  1  6  1  0  0  0
  2  4  2  0  0  0
  2  5  1  0  0  0
  3  5  2  0  0  0
M  END
> <minimizedAffinity>
-2.28631

$$$$
795


  6  6  0  0  0  0  0  0  0  0999 V2000
  -38.0830   61.5715   34.8056 N   0  0  0  0  0  0  0  0  0  0  0  0
  -40.2000   61.2271   34.2290 N   0  0  0  0  0  0  0  0  0  0  0  0
  -38.3024   62.3502   33.7044 C   0  0  0  0  0  0  0  0  0  0  0  0
  -39.2503   60.9158   35.0830 C   0  0  0  0  0  0  0  0  0  0  0  0
  -39.6154   62.1205   33.3667 C   0  0  0  0  0  0  0  0  0  0  0  0
  -37.2165   61.4939   35.3212 H   0  0  0  0  0  0  0  0  0  0  0  0
  1  3  1  0  0  0
  1  4  1  0  0  0
  1  6  1  0  0  0
  2  4  2  0  0  0
  2  5  1  0  0  0
  3  5  2  0  0  0
M  END
> <minimizedAffinity>
-2.27876

$$$$
795


  6  6  0  0  0  0  0  0  0  0999 V2000
  -36.4802   71.6901   31.1702 N   0  0  0  0  0  0  0  0  0  0  0  0
  -34.5899   70.7193   30.5249 N   0  0  0  0  0  0  0  0  0  0  0  0
  -35.5464   72.6864   31.1189 C   0  0  0  0  0  0  0  0  0  0  0  0
  -35.8597   70.5276   30.8056 C   0  0  0  0  0  0  0  0  0  0  0  0
  -34.3880   72.0628   30.7187 C   0  0  0  0  0  0  0  0  0  0  0  0
  -37.4521   71.7933   31.4301 H   0  0  0  0  0  0  0  0  0  0  0  0
  1  3  1  0  0  0
  1  4  1  0  0  0
  1  6  1  0  0  0
  2  4  2  0  0  0
  2  5  1  0  0  0
  3  5  2  0  0  0
M  END
> <minimizedAffinity>
-2.27336

$$$$
795


  6  6  0  0  0  0  0  0  0  0999 V2000
  -32.7460   72.2504   28.8387 N   0  0  0  0  0  0  0  0  0  0  0  0
  -33.1084   73.7119   30.4712 N   0  0  0  0  0  0  0  0  0  0  0  0
  -32.5352   71.5693   30.0044 C   0  0  0  0  0  0  0  0  0  0  0  0
  -33.0876   73.5324   29.1691 C   0  0  0  0  0  0  0  0  0  0  0  0
  -32.7644   72.4921   30.9977 C   0  0  0  0  0  0  0  0  0  0  0  0
  -32.6643   71.8755   27.9030 H   0  0  0  0  0  0  0  0  0  0  0  0
  1  3  1  0  0  0
  1  4  1  0  0  0
  1  6  1  0  0  0
  2  4  2  0  0  0
  2  5  1  0  0  0
  3  5  2  0  0  0
M  END
> <minimizedAffinity>
-2.27046

$$$$
795


  6  6  0  0  0  0  0  0  0  0999 V2000
  -34.0489   73.7633   29.1000 N   0  0  0  0  0  0  0  0  0  0  0  0
  -33.1064   72.8904   30.9117 N   0  0  0  0  0  0  0  0  0  0  0  0
  -35.0316   73.0492   29.7259 C   0  0  0  0  0  0  0  0  0  0  0  0
  -32.9115   73.6384   29.8483 C   0  0  0  0  0  0  0  0  0  0  0  0
  -34.4258   72.5195   30.8410 C   0  0  0  0  0  0  0  0  0  0  0  0
  -34.1449   74.2880   28.2409 H   0  0  0  0  0  0  0  0  0  0  0  0
  1  3  1  0  0  0
  1  4  1  0  0  0
  1  6  1  0  0  0
  2  4  2  0  0  0
  2  5  1  0  0  0
  3  5  2  0  0  0
M  END
> <minimizedAffinity>
-2.26304

$$$$
795


  6  6  0  0  0  0  0  0  0  0999 V2000
  -40.6186   60.7054   36.2242 N   0  0  0  0  0  0  0  0  0  0  0  0
  -42.6493   61.5100   36.6261 N   0  0  0  0  0  0  0  0  0  0  0  0
  -41.4679   59.9947   35.4237 C   0  0  0  0  0  0  0  0  0  0  0  0
  -41.3731   61.6029   36.9275 C   0  0  0  0  0  0  0  0  0  0  0  0
  -42.7152   60.5089   35.6896 C   0  0  0  0  0  0  0  0  0  0  0  0
  -39.6160   60.5892   36.2856 H   0  0  0  0  0  0  0  0  0  0  0  0
  1  3  1  0  0  0
  1  4  1  0  0  0
  1  6  1  0  0  0
  2  4  2  0  0  0
  2  5  1  0  0  0
  3  5  2  0  0  0
M  END
> <minimizedAffinity>
-2.24939

$$$$
795


  6  6  0  0  0  0  0  0  0  0999 V2000
  -39.0523   63.7768   32.2449 N   0  0  0  0  0  0  0  0  0  0  0  0
  -39.5021   65.2358   30.6320 N   0  0  0  0  0  0  0  0  0  0  0  0
  -37.9295   64.5439   32.1104 C   0  0  0  0  0  0  0  0  0  0  0  0
  -39.9689   64.2291   31.3368 C   0  0  0  0  0  0  0  0  0  0  0  0
  -38.2310   65.4367   31.1090 C   0  0  0  0  0  0  0  0  0  0  0  0
  -39.1820   63.0144   32.8965 H   0  0  0  0  0  0  0  0  0  0  0  0
  1  3  1  0  0  0
  1  4  1  0  0  0
  1  6  1  0  0  0
  2  4  2  0  0  0
  2  5  1  0  0  0
  3  5  2  0  0  0
M  END
> <minimizedAffinity>
-2.23455

$$$$
795


  6  6  0  0  0  0  0  0  0  0999 V2000
  -34.6828   70.9187   27.4784 N   0  0  0  0  0  0  0  0  0  0  0  0
  -34.5626   73.1264   27.2676 N   0  0  0  0  0  0  0  0  0  0  0  0
  -33.4295   71.1814   27.0016 C   0  0  0  0  0  0  0  0  0  0  0  0
  -35.3261   72.1167   27.6221 C   0  0  0  0  0  0  0  0  0  0  0  0
  -33.3791   72.5502   26.8792 C   0  0  0  0  0  0  0  0  0  0  0  0
  -35.0650   70.0060   27.6869 H   0  0  0  0  0  0  0  0  0  0  0  0
  1  3  1  0  0  0
  1  4  1  0  0  0
  1  6  1  0  0  0
  2  4  2  0  0  0
  2  5  1  0  0  0
  3  5  2  0  0  0
M  END
> <minimizedAffinity>
-2.23028

$$$$
795


  6  6  0  0  0  0  0  0  0  0999 V2000
  -37.9011   63.1138   31.8097 N   0  0  0  0  0  0  0  0  0  0  0  0
  -38.3508   65.2169   32.3641 N   0  0  0  0  0  0  0  0  0  0  0  0
  -38.9055   63.0506   32.7341 C   0  0  0  0  0  0  0  0  0  0  0  0
  -37.6014   64.4343   31.6199 C   0  0  0  0  0  0  0  0  0  0  0  0
  -39.1655   64.3606   33.0615 C   0  0  0  0  0  0  0  0  0  0  0  0
  -37.4601   62.3284   31.3500 H   0  0  0  0  0  0  0  0  0  0  0  0
  1  3  1  0  0  0
  1  4  1  0  0  0
  1  6  1  0  0  0
  2  4  2  0  0  0
  2  5  1  0  0  0
  3  5  2  0  0  0
M  END
> <minimizedAffinity>
-2.21243

$$$$
795


  6  6  0  0  0  0  0  0  0  0999 V2000
  -35.9570   70.6834   27.7181 N   0  0  0  0  0  0  0  0  0  0  0  0
  -37.4714   70.7128   29.3424 N   0  0  0  0  0  0  0  0  0  0  0  0
  -36.7146   71.8001   27.5032 C   0  0  0  0  0  0  0  0  0  0  0  0
  -36.4488   70.0628   28.8328 C   0  0  0  0  0  0  0  0  0  0  0  0
  -37.6426   71.7966   28.5180 C   0  0  0  0  0  0  0  0  0  0  0  0
  -35.1759   70.3725   27.1562 H   0  0  0  0  0  0  0  0  0  0  0  0
  1  3  1  0  0  0
  1  4  1  0  0  0
  1  6  1  0  0  0
  2  4  2  0  0  0
  2  5  1  0  0  0
  3  5  2  0  0  0
M  END
> <minimizedAffinity>
-2.20630

$$$$
795


  6  6  0  0  0  0  0  0  0  0999 V2000
  -39.7109   63.4585   32.1017 N   0  0  0  0  0  0  0  0  0  0  0  0
  -38.3525   64.8664   31.0505 N   0  0  0  0  0  0  0  0  0  0  0  0
  -40.5198   64.3859   31.5078 C   0  0  0  0  0  0  0  0  0  0  0  0
  -38.4188   63.7881   31.7994 C   0  0  0  0  0  0  0  0  0  0  0  0
  -39.6587   65.2444   30.8654 C   0  0  0  0  0  0  0  0  0  0  0  0
  -40.0121   62.6724   32.6620 H   0  0  0  0  0  0  0  0  0  0  0  0
  1  3  1  0  0  0
  1  4  1  0  0  0
  1  6  1  0  0  0
  2  4  2  0  0  0
  2  5  1  0  0  0
  3  5  2  0  0  0
M  END
> <minimizedAffinity>
-2.20458

$$$$
795


  6  6  0  0  0  0  0  0  0  0999 V2000
  -35.4814   68.4524   40.5793 N   0  0  0  0  0  0  0  0  0  0  0  0
  -35.7182   67.1853   38.7707 N   0  0  0  0  0  0  0  0  0  0  0  0
  -34.2213   68.2682   40.0838 C   0  0  0  0  0  0  0  0  0  0  0  0
  -36.3464   67.7838   39.7582 C   0  0  0  0  0  0  0  0  0  0  0  0
  -34.3930   67.4829   38.9681 C   0  0  0  0  0  0  0  0  0  0  0  0
  -35.7292   68.9854   41.4022 H   0  0  0  0  0  0  0  0  0  0  0  0
  1  3  1  0  0  0
  1  4  1  0  0  0
  1  6  1  0  0  0
  2  4  2  0  0  0
  2  5  1  0  0  0
  3  5  2  0  0  0
M  END
> <minimizedAffinity>
-2.19449

$$$$
795


  6  6  0  0  0  0  0  0  0  0999 V2000
  -40.8869   62.3695   35.7713 N   0  0  0  0  0  0  0  0  0  0  0  0
  -39.4792   60.7140   35.3128 N   0  0  0  0  0  0  0  0  0  0  0  0
  -39.7656   62.9618   35.2624 C   0  0  0  0  0  0  0  0  0  0  0  0
  -40.6683   61.0198   35.7825 C   0  0  0  0  0  0  0  0  0  0  0  0
  -38.9111   61.9201   34.9873 C   0  0  0  0  0  0  0  0  0  0  0  0
  -41.7249   62.8421   36.0827 H   0  0  0  0  0  0  0  0  0  0  0  0
  1  3  1  0  0  0
  1  4  1  0  0  0
  1  6  1  0  0  0
  2  4  2  0  0  0
  2  5  1  0  0  0
  3  5  2  0  0  0
M  END
> <minimizedAffinity>
-2.18425

$$$$
795


  6  6  0  0  0  0  0  0  0  0999 V2000
  -39.4748   69.4402   29.3483 N   0  0  0  0  0  0  0  0  0  0  0  0
  -37.5927   68.2643   29.4330 N   0  0  0  0  0  0  0  0  0  0  0  0
  -38.5831   70.1034   28.5531 C   0  0  0  0  0  0  0  0  0  0  0  0
  -38.8352   68.3430   29.8548 C   0  0  0  0  0  0  0  0  0  0  0  0
  -37.4289   69.3589   28.6216 C   0  0  0  0  0  0  0  0  0  0  0  0
  -40.4322   69.7108   29.5292 H   0  0  0  0  0  0  0  0  0  0  0  0
  1  3  1  0  0  0
  1  4  1  0  0  0
  1  6  1  0  0  0
  2  4  2  0  0  0
  2  5  1  0  0  0
  3  5  2  0  0  0
M  END
> <minimizedAffinity>
-2.11016

$$$$
795


  6  6  0  0  0  0  0  0  0  0999 V2000
  -31.4714   70.9023   27.7679 N   0  0  0  0  0  0  0  0  0  0  0  0
  -32.8706   70.7635   26.0487 N   0  0  0  0  0  0  0  0  0  0  0  0
  -32.0471   72.1363   27.6533 C   0  0  0  0  0  0  0  0  0  0  0  0
  -31.9966   70.1120   26.7834 C   0  0  0  0  0  0  0  0  0  0  0  0
  -32.9064   72.0261   26.5854 C   0  0  0  0  0  0  0  0  0  0  0  0
  -30.7831   70.6241   28.4546 H   0  0  0  0  0  0  0  0  0  0  0  0
  1  3  1  0  0  0
  1  4  1  0  0  0
  1  6  1  0  0  0
  2  4  2  0  0  0
  2  5  1  0  0  0
  3  5  2  0  0  0
M  END
> <minimizedAffinity>
-2.08082

$$$$
795


  6  6  0  0  0  0  0  0  0  0999 V2000
  -33.7252   68.2401   40.7056 N   0  0  0  0  0  0  0  0  0  0  0  0
  -33.1501   69.9969   41.9366 N   0  0  0  0  0  0  0  0  0  0  0  0
  -34.1110   69.3396   39.9919 C   0  0  0  0  0  0  0  0  0  0  0  0
  -33.1536   68.6842   41.8655 C   0  0  0  0  0  0  0  0  0  0  0  0
  -33.7460   70.4116   40.7720 C   0  0  0  0  0  0  0  0  0  0  0  0
  -33.8410   67.2748   40.4274 H   0  0  0  0  0  0  0  0  0  0  0  0
  1  3  1  0  0  0
  1  4  1  0  0  0
  1  6  1  0  0  0
  2  4  2  0  0  0
  2  5  1  0  0  0
  3  5  2  0  0  0
M  END
> <minimizedAffinity>
-2.04601

$$$$
795


  6  6  0  0  0  0  0  0  0  0999 V2000
  -31.5924   72.9460   37.6908 N   0  0  0  0  0  0  0  0  0  0  0  0
  -32.3636   72.6205   39.7479 N   0  0  0  0  0  0  0  0  0  0  0  0
  -32.8232   72.3712   37.5425 C   0  0  0  0  0  0  0  0  0  0  0  0
  -31.3595   73.0757   39.0318 C   0  0  0  0  0  0  0  0  0  0  0  0
  -33.2791   72.1794   38.8256 C   0  0  0  0  0  0  0  0  0  0  0  0
  -30.9679   73.2245   36.9457 H   0  0  0  0  0  0  0  0  0  0  0  0
  1  3  1  0  0  0
  1  4  1  0  0  0
  1  6  1  0  0  0
  2  4  2  0  0  0
  2  5  1  0  0  0
  3  5  2  0  0  0
M  END
> <minimizedAffinity>
-2.03868

$$$$
795


  6  6  0  0  0  0  0  0  0  0999 V2000
  -32.6226   67.4590   43.2233 N   0  0  0  0  0  0  0  0  0  0  0  0
  -34.4496   67.2542   41.9772 N   0  0  0  0  0  0  0  0  0  0  0  0
  -32.6222   68.5335   42.3791 C   0  0  0  0  0  0  0  0  0  0  0  0
  -33.7384   66.7195   42.9449 C   0  0  0  0  0  0  0  0  0  0  0  0
  -33.7590   68.3850   41.6197 C   0  0  0  0  0  0  0  0  0  0  0  0
  -31.9257   67.2488   43.9252 H   0  0  0  0  0  0  0  0  0  0  0  0
  1  3  1  0  0  0
  1  4  1  0  0  0
  1  6  1  0  0  0
  2  4  2  0  0  0
  2  5  1  0  0  0
  3  5  2  0  0  0
M  END
> <minimizedAffinity>
-2.02229

$$$$
795


  6  6  0  0  0  0  0  0  0  0999 V2000
  -40.1833   61.7466   33.7346 N   0  0  0  0  0  0  0  0  0  0  0  0
  -40.7551   63.5134   32.5165 N   0  0  0  0  0  0  0  0  0  0  0  0
  -39.0274   62.1948   33.1599 C   0  0  0  0  0  0  0  0  0  0  0  0
  -41.1933   62.5692   33.3192 C   0  0  0  0  0  0  0  0  0  0  0  0
  -39.4057   63.2854   32.4127 C   0  0  0  0  0  0  0  0  0  0  0  0
  -40.2752   60.9523   34.3537 H   0  0  0  0  0  0  0  0  0  0  0  0
  1  3  1  0  0  0
  1  4  1  0  0  0
  1  6  1  0  0  0
  2  4  2  0  0  0
  2  5  1  0  0  0
  3  5  2  0  0  0
M  END
> <minimizedAffinity>
-2.02136

$$$$
795


  6  6  0  0  0  0  0  0  0  0999 V2000
  -32.2095   72.1987   26.2173 N   0  0  0  0  0  0  0  0  0  0  0  0
  -30.9896   70.7708   27.4027 N   0  0  0  0  0  0  0  0  0  0  0  0
  -32.8205   70.9838   26.0837 C   0  0  0  0  0  0  0  0  0  0  0  0
  -31.1151   72.0213   27.0174 C   0  0  0  0  0  0  0  0  0  0  0  0
  -32.0493   70.1186   26.8237 C   0  0  0  0  0  0  0  0  0  0  0  0
  -32.5111   73.0696   25.8009 H   0  0  0  0  0  0  0  0  0  0  0  0
  1  3  1  0  0  0
  1  4  1  0  0  0
  1  6  1  0  0  0
  2  4  2  0  0  0
  2  5  1  0  0  0
  3  5  2  0  0  0
M  END
> <minimizedAffinity>
-2.01825

$$$$
795


  6  6  0  0  0  0  0  0  0  0999 V2000
  -39.6782   65.7185   30.5569 N   0  0  0  0  0  0  0  0  0  0  0  0
  -40.0594   67.5640   31.7322 N   0  0  0  0  0  0  0  0  0  0  0  0
  -38.4603   66.1200   31.0286 C   0  0  0  0  0  0  0  0  0  0  0  0
  -40.6074   66.6160   31.0048 C   0  0  0  0  0  0  0  0  0  0  0  0
  -38.7210   67.2610   31.7506 C   0  0  0  0  0  0  0  0  0  0  0  0
  -39.8596   64.9066   29.9820 H   0  0  0  0  0  0  0  0  0  0  0  0
  1  3  1  0  0  0
  1  4  1  0  0  0
  1  6  1  0  0  0
  2  4  2  0  0  0
  2  5  1  0  0  0
  3  5  2  0  0  0
M  END
> <minimizedAffinity>
-1.97787

$$$$
795


  6  6  0  0  0  0  0  0  0  0999 V2000
  -33.1149   71.6961   41.0242 N   0  0  0  0  0  0  0  0  0  0  0  0
  -33.2588   71.4632   38.8202 N   0  0  0  0  0  0  0  0  0  0  0  0
  -32.4015   72.7325   40.4910 C   0  0  0  0  0  0  0  0  0  0  0  0
  -33.6105   70.9613   39.9832 C   0  0  0  0  0  0  0  0  0  0  0  0
  -32.5045   72.5672   39.1298 C   0  0  0  0  0  0  0  0  0  0  0  0
  -33.2515   71.5069   42.0082 H   0  0  0  0  0  0  0  0  0  0  0  0
  1  3  1  0  0  0
  1  4  1  0  0  0
  1  6  1  0  0  0
  2  4  2  0  0  0
  2  5  1  0  0  0
  3  5  2  0  0  0
M  END
> <minimizedAffinity>
-1.95483

$$$$
795


  6  6  0  0  0  0  0  0  0  0999 V2000
  -31.8703   72.4376   29.6942 N   0  0  0  0  0  0  0  0  0  0  0  0
  -30.9978   71.1622   28.0990 N   0  0  0  0  0  0  0  0  0  0  0  0
  -32.0164   71.1487   30.1238 C   0  0  0  0  0  0  0  0  0  0  0  0
  -31.2541   72.3957   28.4744 C   0  0  0  0  0  0  0  0  0  0  0  0
  -31.4710   70.3799   29.1225 C   0  0  0  0  0  0  0  0  0  0  0  0
  -32.1638   73.2700   30.1876 H   0  0  0  0  0  0  0  0  0  0  0  0
  1  3  1  0  0  0
  1  4  1  0  0  0
  1  6  1  0  0  0
  2  4  2  0  0  0
  2  5  1  0  0  0
  3  5  2  0  0  0
M  END
> <minimizedAffinity>
-1.94052

$$$$
795


  6  6  0  0  0  0  0  0  0  0999 V2000
  -46.3648   60.7773   35.6576 N   0  0  0  0  0  0  0  0  0  0  0  0
  -46.2586   60.4666   37.8541 N   0  0  0  0  0  0  0  0  0  0  0  0
  -47.5776   60.2640   36.0220 C   0  0  0  0  0  0  0  0  0  0  0  0
  -45.6064   60.8809   36.7906 C   0  0  0  0  0  0  0  0  0  0  0  0
  -47.4878   60.0801   37.3818 C   0  0  0  0  0  0  0  0  0  0  0  0
  -46.0799   61.0337   34.7218 H   0  0  0  0  0  0  0  0  0  0  0  0
  1  3  1  0  0  0
  1  4  1  0  0  0
  1  6  1  0  0  0
  2  4  2  0  0  0
  2  5  1  0  0  0
  3  5  2  0  0  0
M  END
> <minimizedAffinity>
-1.89964

$$$$
795


  6  6  0  0  0  0  0  0  0  0999 V2000
  -39.5806   63.9845   33.8295 N   0  0  0  0  0  0  0  0  0  0  0  0
  -39.9625   61.8172   33.5306 N   0  0  0  0  0  0  0  0  0  0  0  0
  -40.9284   63.8649   33.6388 C   0  0  0  0  0  0  0  0  0  0  0  0
  -39.0432   62.7295   33.7559 C   0  0  0  0  0  0  0  0  0  0  0  0
  -41.1399   62.5185   33.4560 C   0  0  0  0  0  0  0  0  0  0  0  0
  -39.0732   64.8435   33.9949 H   0  0  0  0  0  0  0  0  0  0  0  0
  1  3  1  0  0  0
  1  4  1  0  0  0
  1  6  1  0  0  0
  2  4  2  0  0  0
  2  5  1  0  0  0
  3  5  2  0  0  0
M  END
> <minimizedAffinity>
-1.89639

$$$$
795


  6  6  0  0  0  0  0  0  0  0999 V2000
  -47.2839   58.8048   38.9268 N   0  0  0  0  0  0  0  0  0  0  0  0
  -48.3708   59.1757   37.0259 N   0  0  0  0  0  0  0  0  0  0  0  0
  -48.2901   57.8812   38.8847 C   0  0  0  0  0  0  0  0  0  0  0  0
  -47.3724   59.5595   37.7901 C   0  0  0  0  0  0  0  0  0  0  0  0
  -48.9473   58.1302   37.7027 C   0  0  0  0  0  0  0  0  0  0  0  0
  -46.5992   58.9111   39.6633 H   0  0  0  0  0  0  0  0  0  0  0  0
  1  3  1  0  0  0
  1  4  1  0  0  0
  1  6  1  0  0  0
  2  4  2  0  0  0
  2  5  1  0  0  0
  3  5  2  0  0  0
M  END
> <minimizedAffinity>
-1.89414

$$$$
795


  6  6  0  0  0  0  0  0  0  0999 V2000
  -33.6398   69.5304   41.4233 N   0  0  0  0  0  0  0  0  0  0  0  0
  -32.1734   69.0692   43.0263 N   0  0  0  0  0  0  0  0  0  0  0  0
  -33.2713   70.7356   41.9514 C   0  0  0  0  0  0  0  0  0  0  0  0
  -32.9551   68.5597   42.1003 C   0  0  0  0  0  0  0  0  0  0  0  0
  -32.3662   70.4252   42.9390 C   0  0  0  0  0  0  0  0  0  0  0  0
  -34.2981   69.3830   40.6700 H   0  0  0  0  0  0  0  0  0  0  0  0
  1  3  1  0  0  0
  1  4  1  0  0  0
  1  6  1  0  0  0
  2  4  2  0  0  0
  2  5  1  0  0  0
  3  5  2  0  0  0
M  END
> <minimizedAffinity>
-1.88797

$$$$
795


  6  6  0  0  0  0  0  0  0  0999 V2000
  -34.9568   72.9903   29.0531 N   0  0  0  0  0  0  0  0  0  0  0  0
  -34.4232   71.7607   27.2823 N   0  0  0  0  0  0  0  0  0  0  0  0
  -35.0848   71.6888   29.4490 C   0  0  0  0  0  0  0  0  0  0  0  0
  -34.5579   72.9836   27.7454 C   0  0  0  0  0  0  0  0  0  0  0  0
  -34.7506   70.9488   28.3392 C   0  0  0  0  0  0  0  0  0  0  0  0
  -35.1260   73.8087   29.6225 H   0  0  0  0  0  0  0  0  0  0  0  0
  1  3  1  0  0  0
  1  4  1  0  0  0
  1  6  1  0  0  0
  2  4  2  0  0  0
  2  5  1  0  0  0
  3  5  2  0  0  0
M  END
> <minimizedAffinity>
-1.85683

$$$$
795


  6  6  0  0  0  0  0  0  0  0999 V2000
  -34.1906   69.2682   42.8994 N   0  0  0  0  0  0  0  0  0  0  0  0
  -32.2845   68.2021   42.4963 N   0  0  0  0  0  0  0  0  0  0  0  0
  -34.0051   68.4211   43.9554 C   0  0  0  0  0  0  0  0  0  0  0  0
  -33.1328   69.1014   42.0494 C   0  0  0  0  0  0  0  0  0  0  0  0
  -32.8227   67.7738   43.6839 C   0  0  0  0  0  0  0  0  0  0  0  0
  -34.9676   69.9023   42.7699 H   0  0  0  0  0  0  0  0  0  0  0  0
  1  3  1  0  0  0
  1  4  1  0  0  0
  1  6  1  0  0  0
  2  4  2  0  0  0
  2  5  1  0  0  0
  3  5  2  0  0  0
M  END
> <minimizedAffinity>
-1.82337

$$$$
795


  6  6  0  0  0  0  0  0  0  0999 V2000
  -36.5724   73.2312   31.6231 N   0  0  0  0  0  0  0  0  0  0  0  0
  -37.5837   72.5161   29.7797 N   0  0  0  0  0  0  0  0  0  0  0  0
  -35.5733   72.8565   30.7695 C   0  0  0  0  0  0  0  0  0  0  0  0
  -37.7612   73.0086   30.9856 C   0  0  0  0  0  0  0  0  0  0  0  0
  -36.2221   72.4183   29.6390 C   0  0  0  0  0  0  0  0  0  0  0  0
  -36.4546   73.6047   32.5555 H   0  0  0  0  0  0  0  0  0  0  0  0
  1  3  1  0  0  0
  1  4  1  0  0  0
  1  6  1  0  0  0
  2  4  2  0  0  0
  2  5  1  0  0  0
  3  5  2  0  0  0
M  END
> <minimizedAffinity>
-1.82201

$$$$
795


  6  6  0  0  0  0  0  0  0  0999 V2000
  -41.7987   62.9191   39.7194 N   0  0  0  0  0  0  0  0  0  0  0  0
  -40.6566   64.6338   38.8899 N   0  0  0  0  0  0  0  0  0  0  0  0
  -41.9731   62.8650   38.3652 C   0  0  0  0  0  0  0  0  0  0  0  0
  -41.0016   63.9972   39.9871 C   0  0  0  0  0  0  0  0  0  0  0  0
  -41.2593   63.9333   37.8753 C   0  0  0  0  0  0  0  0  0  0  0  0
  -42.1875   62.2794   40.3992 H   0  0  0  0  0  0  0  0  0  0  0  0
  1  3  1  0  0  0
  1  4  1  0  0  0
  1  6  1  0  0  0
  2  4  2  0  0  0
  2  5  1  0  0  0
  3  5  2  0  0  0
M  END
> <minimizedAffinity>
-1.74364

$$$$
795


  6  6  0  0  0  0  0  0  0  0999 V2000
  -38.8815   72.0275   30.7016 N   0  0  0  0  0  0  0  0  0  0  0  0
  -37.8731   71.4590   32.5970 N   0  0  0  0  0  0  0  0  0  0  0  0
  -38.1286   73.1088   31.0639 C   0  0  0  0  0  0  0  0  0  0  0  0
  -38.6963   71.0622   31.6520 C   0  0  0  0  0  0  0  0  0  0  0  0
  -37.5160   72.7342   32.2366 C   0  0  0  0  0  0  0  0  0  0  0  0
  -39.4681   71.9543   29.8812 H   0  0  0  0  0  0  0  0  0  0  0  0
  1  3  1  0  0  0
  1  4  1  0  0  0
  1  6  1  0  0  0
  2  4  2  0  0  0
  2  5  1  0  0  0
  3  5  2  0  0  0
M  END
> <minimizedAffinity>
-1.72433

$$$$
795


  6  6  0  0  0  0  0  0  0  0999 V2000
  -46.6275   57.6597   40.3068 N   0  0  0  0  0  0  0  0  0  0  0  0
  -48.3724   59.0249   40.1527 N   0  0  0  0  0  0  0  0  0  0  0  0
  -47.6944   56.9601   40.7961 C   0  0  0  0  0  0  0  0  0  0  0  0
  -47.0830   58.8935   39.9331 C   0  0  0  0  0  0  0  0  0  0  0  0
  -48.7596   57.8234   40.6911 C   0  0  0  0  0  0  0  0  0  0  0  0
  -45.6755   57.3265   40.2342 H   0  0  0  0  0  0  0  0  0  0  0  0
  1  3  1  0  0  0
  1  4  1  0  0  0
  1  6  1  0  0  0
  2  4  2  0  0  0
  2  5  1  0  0  0
  3  5  2  0  0  0
M  END
> <minimizedAffinity>
-1.71156

$$$$
795


  6  6  0  0  0  0  0  0  0  0999 V2000
  -38.3404   72.1096   31.1942 N   0  0  0  0  0  0  0  0  0  0  0  0
  -38.3935   72.2934   28.9815 N   0  0  0  0  0  0  0  0  0  0  0  0
  -39.5931   71.7159   30.8159 C   0  0  0  0  0  0  0  0  0  0  0  0
  -37.6567   72.4471   30.0593 C   0  0  0  0  0  0  0  0  0  0  0  0
  -39.6020   71.8384   29.4462 C   0  0  0  0  0  0  0  0  0  0  0  0
  -37.9840   72.1449   32.1398 H   0  0  0  0  0  0  0  0  0  0  0  0
  1  3  1  0  0  0
  1  4  1  0  0  0
  1  6  1  0  0  0
  2  4  2  0  0  0
  2  5  1  0  0  0
  3  5  2  0  0  0
M  END
> <minimizedAffinity>
-1.69302

$$$$
795


  6  6  0  0  0  0  0  0  0  0999 V2000
  -34.5569   72.2393   39.3997 N   0  0  0  0  0  0  0  0  0  0  0  0
  -34.4511   73.1245   37.3656 N   0  0  0  0  0  0  0  0  0  0  0  0
  -33.2878   72.0003   38.9532 C   0  0  0  0  0  0  0  0  0  0  0  0
  -35.2180   72.9164   38.4128 C   0  0  0  0  0  0  0  0  0  0  0  0
  -33.2466   72.5555   37.6958 C   0  0  0  0  0  0  0  0  0  0  0  0
  -34.9378   71.9658   40.2957 H   0  0  0  0  0  0  0  0  0  0  0  0
  1  3  1  0  0  0
  1  4  1  0  0  0
  1  6  1  0  0  0
  2  4  2  0  0  0
  2  5  1  0  0  0
  3  5  2  0  0  0
M  END
> <minimizedAffinity>
-1.67660

$$$$
795


  6  6  0  0  0  0  0  0  0  0999 V2000
  -39.6533   65.7654   38.2848 N   0  0  0  0  0  0  0  0  0  0  0  0
  -41.0715   64.0568   38.3297 N   0  0  0  0  0  0  0  0  0  0  0  0
  -39.9374   65.5494   39.6038 C   0  0  0  0  0  0  0  0  0  0  0  0
  -40.3570   64.8456   37.5580 C   0  0  0  0  0  0  0  0  0  0  0  0
  -40.8148   64.4905   39.6061 C   0  0  0  0  0  0  0  0  0  0  0  0
  -39.0360   66.4751   37.9137 H   0  0  0  0  0  0  0  0  0  0  0  0
  1  3  1  0  0  0
  1  4  1  0  0  0
  1  6  1  0  0  0
  2  4  2  0  0  0
  2  5  1  0  0  0
  3  5  2  0  0  0
M  END
> <minimizedAffinity>
-1.67316

$$$$
795


  6  6  0  0  0  0  0  0  0  0999 V2000
  -40.5771   67.5857   34.3699 N   0  0  0  0  0  0  0  0  0  0  0  0
  -39.4776   66.7486   32.6313 N   0  0  0  0  0  0  0  0  0  0  0  0
  -40.4990   66.2392   34.5895 C   0  0  0  0  0  0  0  0  0  0  0  0
  -39.9504   67.8443   33.1826 C   0  0  0  0  0  0  0  0  0  0  0  0
  -39.8167   65.7443   33.5031 C   0  0  0  0  0  0  0  0  0  0  0  0
  -41.0174   68.2664   34.9744 H   0  0  0  0  0  0  0  0  0  0  0  0
  1  3  1  0  0  0
  1  4  1  0  0  0
  1  6  1  0  0  0
  2  4  2  0  0  0
  2  5  1  0  0  0
  3  5  2  0  0  0
M  END
> <minimizedAffinity>
-1.65103

$$$$
795


  6  6  0  0  0  0  0  0  0  0999 V2000
  -41.4161   63.0925   40.0796 N   0  0  0  0  0  0  0  0  0  0  0  0
  -43.6357   63.1615   40.1148 N   0  0  0  0  0  0  0  0  0  0  0  0
  -41.8141   63.0033   38.7754 C   0  0  0  0  0  0  0  0  0  0  0  0
  -42.5440   63.1855   40.8468 C   0  0  0  0  0  0  0  0  0  0  0  0
  -43.1877   63.0475   38.8227 C   0  0  0  0  0  0  0  0  0  0  0  0
  -40.4625   63.0903   40.4161 H   0  0  0  0  0  0  0  0  0  0  0  0
  1  3  1  0  0  0
  1  4  1  0  0  0
  1  6  1  0  0  0
  2  4  2  0  0  0
  2  5  1  0  0  0
  3  5  2  0  0  0
M  END
> <minimizedAffinity>
-1.64904

$$$$
795


  6  6  0  0  0  0  0  0  0  0999 V2000
  -40.4092   65.1354   34.3142 N   0  0  0  0  0  0  0  0  0  0  0  0
  -40.4961   67.1208   35.3057 N   0  0  0  0  0  0  0  0  0  0  0  0
  -40.6254   64.8826   35.6395 C   0  0  0  0  0  0  0  0  0  0  0  0
  -40.3385   66.4923   34.1619 C   0  0  0  0  0  0  0  0  0  0  0  0
  -40.6748   66.1231   36.2310 C   0  0  0  0  0  0  0  0  0  0  0  0
  -40.3182   64.4457   33.5802 H   0  0  0  0  0  0  0  0  0  0  0  0
  1  3  1  0  0  0
  1  4  1  0  0  0
  1  6  1  0  0  0
  2  4  2  0  0  0
  2  5  1  0  0  0
  3  5  2  0  0  0
M  END
> <minimizedAffinity>
-1.63394

$$$$
795


  6  6  0  0  0  0  0  0  0  0999 V2000
  -46.8498   59.3069   39.4921 N   0  0  0  0  0  0  0  0  0  0  0  0
  -48.4257   57.8300   38.9748 N   0  0  0  0  0  0  0  0  0  0  0  0
  -47.3214   59.6774   38.2643 C   0  0  0  0  0  0  0  0  0  0  0  0
  -47.5424   58.1930   39.8781 C   0  0  0  0  0  0  0  0  0  0  0  0
  -48.2927   58.7509   37.9660 C   0  0  0  0  0  0  0  0  0  0  0  0
  -46.1221   59.7710   40.0190 H   0  0  0  0  0  0  0  0  0  0  0  0
  1  3  1  0  0  0
  1  4  1  0  0  0
  1  6  1  0  0  0
  2  4  2  0  0  0
  2  5  1  0  0  0
  3  5  2  0  0  0
M  END
> <minimizedAffinity>
-1.58474

$$$$
795


  6  6  0  0  0  0  0  0  0  0999 V2000
  -47.9726   59.5865   39.8573 N   0  0  0  0  0  0  0  0  0  0  0  0
  -48.9566   57.6048   40.0507 N   0  0  0  0  0  0  0  0  0  0  0  0
  -47.9285   59.0237   38.6129 C   0  0  0  0  0  0  0  0  0  0  0  0
  -48.5986   58.6981   40.6869 C   0  0  0  0  0  0  0  0  0  0  0  0
  -48.5413   57.8012   38.7574 C   0  0  0  0  0  0  0  0  0  0  0  0
  -47.6092   60.4936   40.1174 H   0  0  0  0  0  0  0  0  0  0  0  0
  1  3  1  0  0  0
  1  4  1  0  0  0
  1  6  1  0  0  0
  2  4  2  0  0  0
  2  5  1  0  0  0
  3  5  2  0  0  0
M  END
> <minimizedAffinity>
-1.48377

$$$$
795


  6  6  0  0  0  0  0  0  0  0999 V2000
  -40.6085   66.4870   36.2249 N   0  0  0  0  0  0  0  0  0  0  0  0
  -40.4695   64.3421   35.6658 N   0  0  0  0  0  0  0  0  0  0  0  0
  -40.4351   65.8054   37.3965 C   0  0  0  0  0  0  0  0  0  0  0  0
  -40.6230   65.5669   35.2137 C   0  0  0  0  0  0  0  0  0  0  0  0
  -40.3523   64.4837   37.0259 C   0  0  0  0  0  0  0  0  0  0  0  0
  -40.7080   67.4882   36.1239 H   0  0  0  0  0  0  0  0  0  0  0  0
  1  3  1  0  0  0
  1  4  1  0  0  0
  1  6  1  0  0  0
  2  4  2  0  0  0
  2  5  1  0  0  0
  3  5  2  0  0  0
M  END
> <minimizedAffinity>
-1.46738

$$$$
795


  6  6  0  0  0  0  0  0  0  0999 V2000
  -42.0403   68.1531   35.7295 N   0  0  0  0  0  0  0  0  0  0  0  0
  -40.3661   66.9003   34.9812 N   0  0  0  0  0  0  0  0  0  0  0  0
  -41.7870   67.2401   36.7141 C   0  0  0  0  0  0  0  0  0  0  0  0
  -41.1629   67.9100   34.7095 C   0  0  0  0  0  0  0  0  0  0  0  0
  -40.7503   66.4779   36.2291 C   0  0  0  0  0  0  0  0  0  0  0  0
  -42.7470   68.8761   35.7508 H   0  0  0  0  0  0  0  0  0  0  0  0
  1  3  1  0  0  0
  1  4  1  0  0  0
  1  6  1  0  0  0
  2  4  2  0  0  0
  2  5  1  0  0  0
  3  5  2  0  0  0
M  END
> <minimizedAffinity>
-1.40704

$$$$
795


  6  6  0  0  0  0  0  0  0  0999 V2000
  -41.5477   64.5114   37.1953 N   0  0  0  0  0  0  0  0  0  0  0  0
  -39.9816   66.0779   37.3556 N   0  0  0  0  0  0  0  0  0  0  0  0
  -41.7617   65.3631   36.1483 C   0  0  0  0  0  0  0  0  0  0  0  0
  -40.4691   64.9812   37.8919 C   0  0  0  0  0  0  0  0  0  0  0  0
  -40.7832   66.3217   36.2687 C   0  0  0  0  0  0  0  0  0  0  0  0
  -42.0878   63.6851   37.4150 H   0  0  0  0  0  0  0  0  0  0  0  0
  1  3  1  0  0  0
  1  4  1  0  0  0
  1  6  1  0  0  0
  2  4  2  0  0  0
  2  5  1  0  0  0
  3  5  2  0  0  0
M  END
> <minimizedAffinity>
-1.40298

$$$$
795


  6  6  0  0  0  0  0  0  0  0999 V2000
  -48.4127   58.2691   41.6275 N   0  0  0  0  0  0  0  0  0  0  0  0
  -46.8786   56.7096   42.0111 N   0  0  0  0  0  0  0  0  0  0  0  0
  -48.4756   57.4128   40.5645 C   0  0  0  0  0  0  0  0  0  0  0  0
  -47.4398   57.8064   42.4695 C   0  0  0  0  0  0  0  0  0  0  0  0
  -47.5194   56.4591   40.8236 C   0  0  0  0  0  0  0  0  0  0  0  0
  -48.9812   59.0938   41.7665 H   0  0  0  0  0  0  0  0  0  0  0  0
  1  3  1  0  0  0
  1  4  1  0  0  0
  1  6  1  0  0  0
  2  4  2  0  0  0
  2  5  1  0  0  0
  3  5  2  0  0  0
M  END
> <minimizedAffinity>
-1.30681

$$$$
795


  6  6  0  0  0  0  0  0  0  0999 V2000
  -41.1870   66.2533   39.9150 N   0  0  0  0  0  0  0  0  0  0  0  0
  -41.1144   66.5688   37.7178 N   0  0  0  0  0  0  0  0  0  0  0  0
  -40.0356   65.6535   39.4886 C   0  0  0  0  0  0  0  0  0  0  0  0
  -41.8010   66.7888   38.8170 C   0  0  0  0  0  0  0  0  0  0  0  0
  -40.0129   65.8611   38.1295 C   0  0  0  0  0  0  0  0  0  0  0  0
  -41.5236   66.2940   40.8677 H   0  0  0  0  0  0  0  0  0  0  0  0
  1  3  1  0  0  0
  1  4  1  0  0  0
  1  6  1  0  0  0
  2  4  2  0  0  0
  2  5  1  0  0  0
  3  5  2  0  0  0
M  END
> <minimizedAffinity>
-1.12354

$$$$
795


  6  6  0  0  0  0  0  0  0  0999 V2000
  -37.6223   69.8595   41.1848 N   0  0  0  0  0  0  0  0  0  0  0  0
  -36.7363   67.9872   40.3835 N   0  0  0  0  0  0  0  0  0  0  0  0
  -36.5151   70.2409   40.4806 C   0  0  0  0  0  0  0  0  0  0  0  0
  -37.7142   68.4981   41.0982 C   0  0  0  0  0  0  0  0  0  0  0  0
  -35.9849   69.0683   39.9959 C   0  0  0  0  0  0  0  0  0  0  0  0
  -38.2575   70.4715   41.6793 H   0  0  0  0  0  0  0  0  0  0  0  0
  1  3  1  0  0  0
  1  4  1  0  0  0
  1  6  1  0  0  0
  2  4  2  0  0  0
  2  5  1  0  0  0
  3  5  2  0  0  0
M  END
> <minimizedAffinity>
-1.11781

$$$$
795


  6  6  0  0  0  0  0  0  0  0999 V2000
  -47.9052   59.9753   39.8614 N   0  0  0  0  0  0  0  0  0  0  0  0
  -47.1451   57.9296   40.2731 N   0  0  0  0  0  0  0  0  0  0  0  0
  -48.2662   59.6941   41.1489 C   0  0  0  0  0  0  0  0  0  0  0  0
  -47.2348   58.8868   39.3766 C   0  0  0  0  0  0  0  0  0  0  0  0
  -47.7865   58.4262   41.3800 C   0  0  0  0  0  0  0  0  0  0  0  0
  -48.0982   60.8314   39.3589 H   0  0  0  0  0  0  0  0  0  0  0  0
  1  3  1  0  0  0
  1  4  1  0  0  0
  1  6  1  0  0  0
  2  4  2  0  0  0
  2  5  1  0  0  0
  3  5  2  0  0  0
M  END
> <minimizedAffinity>
-1.11402

$$$$
795


  6  6  0  0  0  0  0  0  0  0999 V2000
  -45.6987   70.3559   34.5172 N   0  0  0  0  0  0  0  0  0  0  0  0
  -44.8302   68.5237   35.4233 N   0  0  0  0  0  0  0  0  0  0  0  0
  -44.4484   70.7057   34.9433 C   0  0  0  0  0  0  0  0  0  0  0  0
  -45.8832   69.0371   34.8271 C   0  0  0  0  0  0  0  0  0  0  0  0
  -43.9322   69.5588   35.4993 C   0  0  0  0  0  0  0  0  0  0  0  0
  -46.3655   70.9611   34.0570 H   0  0  0  0  0  0  0  0  0  0  0  0
  1  3  1  0  0  0
  1  4  1  0  0  0
  1  6  1  0  0  0
  2  4  2  0  0  0
  2  5  1  0  0  0
  3  5  2  0  0  0
M  END
> <minimizedAffinity>
-1.10987

$$$$
795


  6  6  0  0  0  0  0  0  0  0999 V2000
  -43.8344   69.6436   35.4606 N   0  0  0  0  0  0  0  0  0  0  0  0
  -45.7244   70.3799   34.5559 N   0  0  0  0  0  0  0  0  0  0  0  0
  -44.6863   68.5753   35.4521 C   0  0  0  0  0  0  0  0  0  0  0  0
  -44.5015   70.7041   34.9131 C   0  0  0  0  0  0  0  0  0  0  0  0
  -45.8461   69.0542   34.8897 C   0  0  0  0  0  0  0  0  0  0  0  0
  -42.8847   69.6494   35.8080 H   0  0  0  0  0  0  0  0  0  0  0  0
  1  3  1  0  0  0
  1  4  1  0  0  0
  1  6  1  0  0  0
  2  4  2  0  0  0
  2  5  1  0  0  0
  3  5  2  0  0  0
M  END
> <minimizedAffinity>
-1.10593

$$$$
795


  6  6  0  0  0  0  0  0  0  0999 V2000
  -45.9951   68.8279   34.6056 N   0  0  0  0  0  0  0  0  0  0  0  0
  -47.0545   69.6395   36.3808 N   0  0  0  0  0  0  0  0  0  0  0  0
  -45.6598   70.1510   34.6690 C   0  0  0  0  0  0  0  0  0  0  0  0
  -46.8339   68.5670   35.6533 C   0  0  0  0  0  0  0  0  0  0  0  0
  -46.3259   70.6305   35.7723 C   0  0  0  0  0  0  0  0  0  0  0  0
  -45.6808   68.1632   33.9114 H   0  0  0  0  0  0  0  0  0  0  0  0
  1  3  1  0  0  0
  1  4  1  0  0  0
  1  6  1  0  0  0
  2  4  2  0  0  0
  2  5  1  0  0  0
  3  5  2  0  0  0
M  END
> <minimizedAffinity>
-1.05779

$$$$
795


  6  6  0  0  0  0  0  0  0  0999 V2000
  -39.8600   73.9060   32.5181 N   0  0  0  0  0  0  0  0  0  0  0  0
  -39.9482   71.6870   32.4866 N   0  0  0  0  0  0  0  0  0  0  0  0
  -40.3486   73.5335   33.7386 C   0  0  0  0  0  0  0  0  0  0  0  0
  -39.6347   72.7639   31.8009 C   0  0  0  0  0  0  0  0  0  0  0  0
  -40.3944   72.1598   33.6952 C   0  0  0  0  0  0  0  0  0  0  0  0
  -39.6951   74.8525   32.2026 H   0  0  0  0  0  0  0  0  0  0  0  0
  1  3  1  0  0  0
  1  4  1  0  0  0
  1  6  1  0  0  0
  2  4  2  0  0  0
  2  5  1  0  0  0
  3  5  2  0  0  0
M  END
> <minimizedAffinity>
-1.02877

$$$$
795


  6  6  0  0  0  0  0  0  0  0999 V2000
  -43.3274   68.5106   35.4940 N   0  0  0  0  0  0  0  0  0  0  0  0
  -41.9721   70.1846   34.9525 N   0  0  0  0  0  0  0  0  0  0  0  0
  -44.1113   69.6291   35.4550 C   0  0  0  0  0  0  0  0  0  0  0  0
  -42.0515   68.8934   35.1857 C   0  0  0  0  0  0  0  0  0  0  0  0
  -43.2526   70.6493   35.1192 C   0  0  0  0  0  0  0  0  0  0  0  0
  -43.6342   67.5717   35.7109 H   0  0  0  0  0  0  0  0  0  0  0  0
  1  3  1  0  0  0
  1  4  1  0  0  0
  1  6  1  0  0  0
  2  4  2  0  0  0
  2  5  1  0  0  0
  3  5  2  0  0  0
M  END
> <minimizedAffinity>
-0.98889

$$$$
795


  6  6  0  0  0  0  0  0  0  0999 V2000
  -46.7407   70.0862   36.5222 N   0  0  0  0  0  0  0  0  0  0  0  0
  -45.6606   70.3220   34.5960 N   0  0  0  0  0  0  0  0  0  0  0  0
  -46.4873   68.8192   36.0777 C   0  0  0  0  0  0  0  0  0  0  0  0
  -46.2262   70.9546   35.6000 C   0  0  0  0  0  0  0  0  0  0  0  0
  -45.8204   68.9904   34.8874 C   0  0  0  0  0  0  0  0  0  0  0  0
  -47.2207   70.3362   37.3764 H   0  0  0  0  0  0  0  0  0  0  0  0
  1  3  1  0  0  0
  1  4  1  0  0  0
  1  6  1  0  0  0
  2  4  2  0  0  0
  2  5  1  0  0  0
  3  5  2  0  0  0
M  END
> <minimizedAffinity>
-0.97926

$$$$
795


  6  6  0  0  0  0  0  0  0  0999 V2000
  -47.9051   60.5559   37.6288 N   0  0  0  0  0  0  0  0  0  0  0  0
  -48.2551   60.8459   39.8027 N   0  0  0  0  0  0  0  0  0  0  0  0
  -48.6966   59.5140   38.0227 C   0  0  0  0  0  0  0  0  0  0  0  0
  -47.6661   61.3286   38.7312 C   0  0  0  0  0  0  0  0  0  0  0  0
  -48.8988   59.7145   39.3680 C   0  0  0  0  0  0  0  0  0  0  0  0
  -47.5592   60.7249   36.6937 H   0  0  0  0  0  0  0  0  0  0  0  0
  1  3  1  0  0  0
  1  4  1  0  0  0
  1  6  1  0  0  0
  2  4  2  0  0  0
  2  5  1  0  0  0
  3  5  2  0  0  0
M  END
> <minimizedAffinity>
-0.92367

$$$$
795


  6  6  0  0  0  0  0  0  0  0999 V2000
  -48.6566   59.5872   41.3670 N   0  0  0  0  0  0  0  0  0  0  0  0
  -48.2312   58.5676   43.2937 N   0  0  0  0  0  0  0  0  0  0  0  0
  -48.9550   60.4944   42.3443 C   0  0  0  0  0  0  0  0  0  0  0  0
  -48.2264   58.4458   41.9848 C   0  0  0  0  0  0  0  0  0  0  0  0
  -48.6849   59.8422   43.5244 C   0  0  0  0  0  0  0  0  0  0  0  0
  -48.7387   59.7328   40.3697 H   0  0  0  0  0  0  0  0  0  0  0  0
  1  3  1  0  0  0
  1  4  1  0  0  0
  1  6  1  0  0  0
  2  4  2  0  0  0
  2  5  1  0  0  0
  3  5  2  0  0  0
M  END
> <minimizedAffinity>
-0.89227

$$$$
795


  6  6  0  0  0  0  0  0  0  0999 V2000
  -43.4419   67.8727   35.5883 N   0  0  0  0  0  0  0  0  0  0  0  0
  -41.9469   66.2303   35.6015 N   0  0  0  0  0  0  0  0  0  0  0  0
  -43.6463   67.1899   36.7541 C   0  0  0  0  0  0  0  0  0  0  0  0
  -42.4121   67.2600   34.9297 C   0  0  0  0  0  0  0  0  0  0  0  0
  -42.7123   66.1808   36.7396 C   0  0  0  0  0  0  0  0  0  0  0  0
  -43.9573   68.6826   35.2704 H   0  0  0  0  0  0  0  0  0  0  0  0
  1  3  1  0  0  0
  1  4  1  0  0  0
  1  6  1  0  0  0
  2  4  2  0  0  0
  2  5  1  0  0  0
  3  5  2  0  0  0
M  END
> <minimizedAffinity>
-0.84068

$$$$
795


  6  6  0  0  0  0  0  0  0  0999 V2000
  -40.1998   69.2682   41.2382 N   0  0  0  0  0  0  0  0  0  0  0  0
  -38.1961   68.3144   41.1497 N   0  0  0  0  0  0  0  0  0  0  0  0
  -39.2965   70.2777   41.4175 C   0  0  0  0  0  0  0  0  0  0  0  0
  -39.4927   68.1085   41.0818 C   0  0  0  0  0  0  0  0  0  0  0  0
  -38.0671   69.6645   41.3593 C   0  0  0  0  0  0  0  0  0  0  0  0
  -41.2067   69.3613   41.2238 H   0  0  0  0  0  0  0  0  0  0  0  0
  1  3  1  0  0  0
  1  4  1  0  0  0
  1  6  1  0  0  0
  2  4  2  0  0  0
  2  5  1  0  0  0
  3  5  2  0  0  0
M  END
> <minimizedAffinity>
-0.80028

$$$$
795


  6  6  0  0  0  0  0  0  0  0999 V2000
  -44.0147   68.8294   37.0402 N   0  0  0  0  0  0  0  0  0  0  0  0
  -42.1066   67.6944   37.0951 N   0  0  0  0  0  0  0  0  0  0  0  0
  -44.3431   67.5319   36.7648 C   0  0  0  0  0  0  0  0  0  0  0  0
  -42.6617   68.8782   37.2310 C   0  0  0  0  0  0  0  0  0  0  0  0
  -43.1492   66.8508   36.8039 C   0  0  0  0  0  0  0  0  0  0  0  0
  -44.6547   69.6107   37.0932 H   0  0  0  0  0  0  0  0  0  0  0  0
  1  3  1  0  0  0
  1  4  1  0  0  0
  1  6  1  0  0  0
  2  4  2  0  0  0
  2  5  1  0  0  0
  3  5  2  0  0  0
M  END
> <minimizedAffinity>
-0.67089

$$$$
