


  4  3  0  0  0  0  0  0  0  0999 V2000
  -46.6744   71.3052   28.3218 C   0  0  0  0  0  0  0  0  0  0  0  0
  -47.5076   71.8001   27.1868 C   0  0  0  0  0  0  0  0  0  0  0  0
  -48.7976   72.4536   27.6301 C   0  0  0  0  0  0  0  0  0  0  0  0
  -46.7226   72.6841   26.2485 C   0  0  0  0  0  0  0  0  0  0  0  0
  1  2  1  0  0  0
  2  3  1  0  0  0
  2  4  1  0  0  0
M  END
> <minimizedAffinity>
-3.05210

$$$$



  4  3  0  0  0  0  0  0  0  0999 V2000
  -48.7792   72.4400   27.6269 C   0  0  0  0  0  0  0  0  0  0  0  0
  -47.5020   71.8251   27.1599 C   0  0  0  0  0  0  0  0  0  0  0  0
  -46.7086   72.7204   26.2344 C   0  0  0  0  0  0  0  0  0  0  0  0
  -46.6629   71.3169   28.3069 C   0  0  0  0  0  0  0  0  0  0  0  0
  1  2  1  0  0  0
  2  3  1  0  0  0
  2  4  1  0  0  0
M  END
> <minimizedAffinity>
-3.05003

$$$$



  4  3  0  0  0  0  0  0  0  0999 V2000
  -36.8696   61.1757   30.7786 C   0  0  0  0  0  0  0  0  0  0  0  0
  -37.1269   62.1497   31.8797 C   0  0  0  0  0  0  0  0  0  0  0  0
  -37.0752   61.5258   33.2566 C   0  0  0  0  0  0  0  0  0  0  0  0
  -36.2406   63.3673   31.7802 C   0  0  0  0  0  0  0  0  0  0  0  0
  1  2  1  0  0  0
  2  3  1  0  0  0
  2  4  1  0  0  0
M  END
> <minimizedAffinity>
-2.84968

$$$$



  4  3  0  0  0  0  0  0  0  0999 V2000
  -36.3991   63.3323   31.7575 C   0  0  0  0  0  0  0  0  0  0  0  0
  -37.1835   62.0640   31.8166 C   0  0  0  0  0  0  0  0  0  0  0  0
  -36.8291   61.0879   30.7168 C   0  0  0  0  0  0  0  0  0  0  0  0
  -37.1226   61.4210   33.1807 C   0  0  0  0  0  0  0  0  0  0  0  0
  1  2  1  0  0  0
  2  3  1  0  0  0
  2  4  1  0  0  0
M  END
> <minimizedAffinity>
-2.82950

$$$$



  4  3  0  0  0  0  0  0  0  0999 V2000
  -44.3316   60.9576   34.9482 C   0  0  0  0  0  0  0  0  0  0  0  0
  -43.3519   60.8481   33.8276 C   0  0  0  0  0  0  0  0  0  0  0  0
  -42.2332   61.8629   33.9078 C   0  0  0  0  0  0  0  0  0  0  0  0
  -42.8260   59.4424   33.6676 C   0  0  0  0  0  0  0  0  0  0  0  0
  1  2  1  0  0  0
  2  3  1  0  0  0
  2  4  1  0  0  0
M  END
> <minimizedAffinity>
-2.80623

$$$$



  4  3  0  0  0  0  0  0  0  0999 V2000
  -42.3242   61.9260   34.1963 C   0  0  0  0  0  0  0  0  0  0  0  0
  -43.4121   60.9319   33.9603 C   0  0  0  0  0  0  0  0  0  0  0  0
  -42.8993   59.5368   33.6802 C   0  0  0  0  0  0  0  0  0  0  0  0
  -44.4407   60.9420   35.0648 C   0  0  0  0  0  0  0  0  0  0  0  0
  1  2  1  0  0  0
  2  3  1  0  0  0
  2  4  1  0  0  0
M  END
> <minimizedAffinity>
-2.77256

$$$$



  4  3  0  0  0  0  0  0  0  0999 V2000
  -40.6621   60.0149   34.9681 C   0  0  0  0  0  0  0  0  0  0  0  0
  -41.5581   60.3788   33.8314 C   0  0  0  0  0  0  0  0  0  0  0  0
  -42.8230   59.5514   33.7762 C   0  0  0  0  0  0  0  0  0  0  0  0
  -41.8517   61.8587   33.7903 C   0  0  0  0  0  0  0  0  0  0  0  0
  1  2  1  0  0  0
  2  3  1  0  0  0
  2  4  1  0  0  0
M  END
> <minimizedAffinity>
-2.75489

$$$$



  4  3  0  0  0  0  0  0  0  0999 V2000
  -38.0312   60.6246   32.9466 C   0  0  0  0  0  0  0  0  0  0  0  0
  -37.3962   61.6975   32.1261 C   0  0  0  0  0  0  0  0  0  0  0  0
  -36.8568   61.2008   30.8032 C   0  0  0  0  0  0  0  0  0  0  0  0
  -38.3030   62.8913   31.9514 C   0  0  0  0  0  0  0  0  0  0  0  0
  1  2  1  0  0  0
  2  3  1  0  0  0
  2  4  1  0  0  0
M  END
> <minimizedAffinity>
-2.75302

$$$$



  4  3  0  0  0  0  0  0  0  0999 V2000
  -42.8213   59.5280   33.7981 C   0  0  0  0  0  0  0  0  0  0  0  0
  -41.5915   60.3697   33.8795 C   0  0  0  0  0  0  0  0  0  0  0  0
  -41.8700   61.8515   33.7591 C   0  0  0  0  0  0  0  0  0  0  0  0
  -40.7638   60.0502   35.1004 C   0  0  0  0  0  0  0  0  0  0  0  0
  1  2  1  0  0  0
  2  3  1  0  0  0
  2  4  1  0  0  0
M  END
> <minimizedAffinity>
-2.74908

$$$$



  4  3  0  0  0  0  0  0  0  0999 V2000
  -41.9390   61.8602   33.8092 C   0  0  0  0  0  0  0  0  0  0  0  0
  -41.5946   60.4093   33.8708 C   0  0  0  0  0  0  0  0  0  0  0  0
  -40.7174   60.0507   35.0496 C   0  0  0  0  0  0  0  0  0  0  0  0
  -42.8192   59.5306   33.7930 C   0  0  0  0  0  0  0  0  0  0  0  0
  1  2  1  0  0  0
  2  3  1  0  0  0
  2  4  1  0  0  0
M  END
> <minimizedAffinity>
-2.74393

$$$$



  4  3  0  0  0  0  0  0  0  0999 V2000
  -36.9905   61.1202   33.6571 C   0  0  0  0  0  0  0  0  0  0  0  0
  -37.8045   61.4176   32.4420 C   0  0  0  0  0  0  0  0  0  0  0  0
  -38.6700   62.6495   32.5868 C   0  0  0  0  0  0  0  0  0  0  0  0
  -36.9616   61.4660   31.1909 C   0  0  0  0  0  0  0  0  0  0  0  0
  1  2  1  0  0  0
  2  3  1  0  0  0
  2  4  1  0  0  0
M  END
> <minimizedAffinity>
-2.73940

$$$$



  4  3  0  0  0  0  0  0  0  0999 V2000
  -40.0074   59.9941   35.1710 C   0  0  0  0  0  0  0  0  0  0  0  0
  -39.8328   60.4924   33.7750 C   0  0  0  0  0  0  0  0  0  0  0  0
  -40.2950   61.9200   33.5856 C   0  0  0  0  0  0  0  0  0  0  0  0
  -38.4260   60.2848   33.2691 C   0  0  0  0  0  0  0  0  0  0  0  0
  1  2  1  0  0  0
  2  3  1  0  0  0
  2  4  1  0  0  0
M  END
> <minimizedAffinity>
-2.66641

$$$$



  4  3  0  0  0  0  0  0  0  0999 V2000
  -40.3544   61.9025   33.6111 C   0  0  0  0  0  0  0  0  0  0  0  0
  -39.9503   60.4844   33.8417 C   0  0  0  0  0  0  0  0  0  0  0  0
  -38.5709   60.1602   33.3125 C   0  0  0  0  0  0  0  0  0  0  0  0
  -40.1092   60.0758   35.2859 C   0  0  0  0  0  0  0  0  0  0  0  0
  1  2  1  0  0  0
  2  3  1  0  0  0
  2  4  1  0  0  0
M  END
> <minimizedAffinity>
-2.66614

$$$$



  4  3  0  0  0  0  0  0  0  0999 V2000
  -38.4721   60.2512   33.2698 C   0  0  0  0  0  0  0  0  0  0  0  0
  -39.8531   60.4873   33.7840 C   0  0  0  0  0  0  0  0  0  0  0  0
  -40.0462   60.0341   35.2140 C   0  0  0  0  0  0  0  0  0  0  0  0
  -40.2988   61.9150   33.5812 C   0  0  0  0  0  0  0  0  0  0  0  0
  1  2  1  0  0  0
  2  3  1  0  0  0
  2  4  1  0  0  0
M  END
> <minimizedAffinity>
-2.66355

$$$$



  4  3  0  0  0  0  0  0  0  0999 V2000
  -44.3418   61.0890   34.9497 C   0  0  0  0  0  0  0  0  0  0  0  0
  -43.3422   59.9812   34.9148 C   0  0  0  0  0  0  0  0  0  0  0  0
  -42.8827   59.6319   33.5168 C   0  0  0  0  0  0  0  0  0  0  0  0
  -42.1790   60.2357   35.8422 C   0  0  0  0  0  0  0  0  0  0  0  0
  1  2  1  0  0  0
  2  3  1  0  0  0
  2  4  1  0  0  0
M  END
> <minimizedAffinity>
-2.62819

$$$$



  4  3  0  0  0  0  0  0  0  0999 V2000
  -39.5350   68.4896   30.1899 C   0  0  0  0  0  0  0  0  0  0  0  0
  -38.1646   68.0591   29.7847 C   0  0  0  0  0  0  0  0  0  0  0  0
  -38.1063   66.6309   29.2904 C   0  0  0  0  0  0  0  0  0  0  0  0
  -37.5332   69.0193   28.8063 C   0  0  0  0  0  0  0  0  0  0  0  0
  1  2  1  0  0  0
  2  3  1  0  0  0
  2  4  1  0  0  0
M  END
> <minimizedAffinity>
-2.62726

$$$$



  4  3  0  0  0  0  0  0  0  0999 V2000
  -42.8276   59.5711   33.6874 C   0  0  0  0  0  0  0  0  0  0  0  0
  -41.9895   60.5517   34.4380 C   0  0  0  0  0  0  0  0  0  0  0  0
  -40.6295   60.0105   34.8190 C   0  0  0  0  0  0  0  0  0  0  0  0
  -41.8875   61.8770   33.7230 C   0  0  0  0  0  0  0  0  0  0  0  0
  1  2  1  0  0  0
  2  3  1  0  0  0
  2  4  1  0  0  0
M  END
> <minimizedAffinity>
-2.62660

$$$$



  4  3  0  0  0  0  0  0  0  0999 V2000
  -38.5225   62.1345   35.0350 C   0  0  0  0  0  0  0  0  0  0  0  0
  -37.8597   61.1219   34.1615 C   0  0  0  0  0  0  0  0  0  0  0  0
  -38.8273   60.1361   33.5454 C   0  0  0  0  0  0  0  0  0  0  0  0
  -36.9710   61.7618   33.1229 C   0  0  0  0  0  0  0  0  0  0  0  0
  1  2  1  0  0  0
  2  3  1  0  0  0
  2  4  1  0  0  0
M  END
> <minimizedAffinity>
-2.60239

$$$$



  4  3  0  0  0  0  0  0  0  0999 V2000
  -41.9112   62.0849   33.6914 C   0  0  0  0  0  0  0  0  0  0  0  0
  -41.7951   60.6938   34.2194 C   0  0  0  0  0  0  0  0  0  0  0  0
  -42.7652   59.7263   33.5787 C   0  0  0  0  0  0  0  0  0  0  0  0
  -40.3756   60.1833   34.1690 C   0  0  0  0  0  0  0  0  0  0  0  0
  1  2  1  0  0  0
  2  3  1  0  0  0
  2  4  1  0  0  0
M  END
> <minimizedAffinity>
-2.58702

$$$$



  4  3  0  0  0  0  0  0  0  0999 V2000
  -40.0777   59.9545   35.1159 C   0  0  0  0  0  0  0  0  0  0  0  0
  -39.3581   60.9091   34.2224 C   0  0  0  0  0  0  0  0  0  0  0  0
  -38.4612   60.2266   33.2137 C   0  0  0  0  0  0  0  0  0  0  0  0
  -40.2974   61.8915   33.5661 C   0  0  0  0  0  0  0  0  0  0  0  0
  1  2  1  0  0  0
  2  3  1  0  0  0
  2  4  1  0  0  0
M  END
> <minimizedAffinity>
-2.56804

$$$$



  4  3  0  0  0  0  0  0  0  0999 V2000
  -40.1905   61.9669   33.5740 C   0  0  0  0  0  0  0  0  0  0  0  0
  -39.3201   60.9350   34.2103 C   0  0  0  0  0  0  0  0  0  0  0  0
  -40.0871   59.9401   35.0527 C   0  0  0  0  0  0  0  0  0  0  0  0
  -38.4240   60.2502   33.2074 C   0  0  0  0  0  0  0  0  0  0  0  0
  1  2  1  0  0  0
  2  3  1  0  0  0
  2  4  1  0  0  0
M  END
> <minimizedAffinity>
-2.56126

$$$$



  4  3  0  0  0  0  0  0  0  0999 V2000
  -42.4764   62.0326   34.5371 C   0  0  0  0  0  0  0  0  0  0  0  0
  -43.2038   60.7574   34.8059 C   0  0  0  0  0  0  0  0  0  0  0  0
  -44.6407   60.9646   35.2303 C   0  0  0  0  0  0  0  0  0  0  0  0
  -43.0912   59.7856   33.6566 C   0  0  0  0  0  0  0  0  0  0  0  0
  1  2  1  0  0  0
  2  3  1  0  0  0
  2  4  1  0  0  0
M  END
> <minimizedAffinity>
-2.49889

$$$$



  4  3  0  0  0  0  0  0  0  0999 V2000
  -39.2525   69.4963   29.1563 C   0  0  0  0  0  0  0  0  0  0  0  0
  -37.9473   68.7863   29.0145 C   0  0  0  0  0  0  0  0  0  0  0  0
  -36.8044   69.4868   29.7150 C   0  0  0  0  0  0  0  0  0  0  0  0
  -38.0446   67.3334   29.4113 C   0  0  0  0  0  0  0  0  0  0  0  0
  1  2  1  0  0  0
  2  3  1  0  0  0
  2  4  1  0  0  0
M  END
> <minimizedAffinity>
-2.45543

$$$$



  4  3  0  0  0  0  0  0  0  0999 V2000
  -38.1012   66.7021   29.2576 C   0  0  0  0  0  0  0  0  0  0  0  0
  -38.9965   66.1617   30.3224 C   0  0  0  0  0  0  0  0  0  0  0  0
  -38.2460   65.5285   31.4728 C   0  0  0  0  0  0  0  0  0  0  0  0
  -39.9959   67.1874   30.7992 C   0  0  0  0  0  0  0  0  0  0  0  0
  1  2  1  0  0  0
  2  3  1  0  0  0
  2  4  1  0  0  0
M  END
> <minimizedAffinity>
-2.45146

$$$$



  4  3  0  0  0  0  0  0  0  0999 V2000
  -38.2314   65.4602   31.3420 C   0  0  0  0  0  0  0  0  0  0  0  0
  -38.9924   66.1905   30.2860 C   0  0  0  0  0  0  0  0  0  0  0  0
  -40.0054   67.1658   30.8428 C   0  0  0  0  0  0  0  0  0  0  0  0
  -38.0798   66.8425   29.2760 C   0  0  0  0  0  0  0  0  0  0  0  0
  1  2  1  0  0  0
  2  3  1  0  0  0
  2  4  1  0  0  0
M  END
> <minimizedAffinity>
-2.44308

$$$$



  4  3  0  0  0  0  0  0  0  0999 V2000
  -40.3798   66.9734   30.9332 C   0  0  0  0  0  0  0  0  0  0  0  0
  -41.2906   65.9081   31.4462 C   0  0  0  0  0  0  0  0  0  0  0  0
  -40.9182   64.5210   30.9717 C   0  0  0  0  0  0  0  0  0  0  0  0
  -41.4456   65.9667   32.9464 C   0  0  0  0  0  0  0  0  0  0  0  0
  1  2  1  0  0  0
  2  3  1  0  0  0
  2  4  1  0  0  0
M  END
> <minimizedAffinity>
-2.39261

$$$$



  4  3  0  0  0  0  0  0  0  0999 V2000
  -41.3875   65.8646   33.0075 C   0  0  0  0  0  0  0  0  0  0  0  0
  -41.3081   65.8890   31.5174 C   0  0  0  0  0  0  0  0  0  0  0  0
  -40.4219   66.9916   30.9820 C   0  0  0  0  0  0  0  0  0  0  0  0
  -40.9379   64.5422   30.9457 C   0  0  0  0  0  0  0  0  0  0  0  0
  1  2  1  0  0  0
  2  3  1  0  0  0
  2  4  1  0  0  0
M  END
> <minimizedAffinity>
-2.38200

$$$$



  4  3  0  0  0  0  0  0  0  0999 V2000
  -40.8381   64.5716   30.9585 C   0  0  0  0  0  0  0  0  0  0  0  0
  -41.3098   65.8971   31.4567 C   0  0  0  0  0  0  0  0  0  0  0  0
  -41.5576   65.9235   32.9485 C   0  0  0  0  0  0  0  0  0  0  0  0
  -40.4072   67.0238   31.0163 C   0  0  0  0  0  0  0  0  0  0  0  0
  1  2  1  0  0  0
  2  3  1  0  0  0
  2  4  1  0  0  0
M  END
> <minimizedAffinity>
-2.36966

$$$$



  4  3  0  0  0  0  0  0  0  0999 V2000
  -36.8224   69.6439   28.9322 C   0  0  0  0  0  0  0  0  0  0  0  0
  -38.0660   68.8238   28.8407 C   0  0  0  0  0  0  0  0  0  0  0  0
  -37.9814   67.5192   29.6013 C   0  0  0  0  0  0  0  0  0  0  0  0
  -39.2967   69.6138   29.2139 C   0  0  0  0  0  0  0  0  0  0  0  0
  1  2  1  0  0  0
  2  3  1  0  0  0
  2  4  1  0  0  0
M  END
> <minimizedAffinity>
-2.35954

$$$$



  4  3  0  0  0  0  0  0  0  0999 V2000
  -42.8126   62.2483   35.0599 C   0  0  0  0  0  0  0  0  0  0  0  0
  -42.2083   61.6996   33.8105 C   0  0  0  0  0  0  0  0  0  0  0  0
  -41.0155   62.4918   33.3231 C   0  0  0  0  0  0  0  0  0  0  0  0
  -41.8957   60.2278   33.9290 C   0  0  0  0  0  0  0  0  0  0  0  0
  1  2  1  0  0  0
  2  3  1  0  0  0
  2  4  1  0  0  0
M  END
> <minimizedAffinity>
-2.34324

$$$$



  4  3  0  0  0  0  0  0  0  0999 V2000
  -40.0667   70.2216   28.4218 C   0  0  0  0  0  0  0  0  0  0  0  0
  -38.5804   70.2384   28.5560 C   0  0  0  0  0  0  0  0  0  0  0  0
  -37.9954   68.8906   28.9151 C   0  0  0  0  0  0  0  0  0  0  0  0
  -37.9072   70.8396   27.3463 C   0  0  0  0  0  0  0  0  0  0  0  0
  1  2  1  0  0  0
  2  3  1  0  0  0
  2  4  1  0  0  0
M  END
> <minimizedAffinity>
-2.31108

$$$$



  4  3  0  0  0  0  0  0  0  0999 V2000
  -35.9807   70.2818   29.2585 C   0  0  0  0  0  0  0  0  0  0  0  0
  -37.3949   69.9894   28.8819 C   0  0  0  0  0  0  0  0  0  0  0  0
  -37.7772   70.5293   27.5217 C   0  0  0  0  0  0  0  0  0  0  0  0
  -37.7285   68.5238   29.0194 C   0  0  0  0  0  0  0  0  0  0  0  0
  1  2  1  0  0  0
  2  3  1  0  0  0
  2  4  1  0  0  0
M  END
> <minimizedAffinity>
-2.28988

$$$$



  4  3  0  0  0  0  0  0  0  0999 V2000
  -35.5270   67.0519   39.4608 C   0  0  0  0  0  0  0  0  0  0  0  0
  -34.3968   67.6886   40.1987 C   0  0  0  0  0  0  0  0  0  0  0  0
  -34.2495   69.1662   39.9110 C   0  0  0  0  0  0  0  0  0  0  0  0
  -34.4549   67.4071   41.6804 C   0  0  0  0  0  0  0  0  0  0  0  0
  1  2  1  0  0  0
  2  3  1  0  0  0
  2  4  1  0  0  0
M  END
> <minimizedAffinity>
-2.24474

$$$$



  4  3  0  0  0  0  0  0  0  0999 V2000
  -34.4930   67.4009   41.6009 C   0  0  0  0  0  0  0  0  0  0  0  0
  -34.4180   67.7330   40.1478 C   0  0  0  0  0  0  0  0  0  0  0  0
  -35.5685   67.1695   39.3437 C   0  0  0  0  0  0  0  0  0  0  0  0
  -34.2380   69.2128   39.9114 C   0  0  0  0  0  0  0  0  0  0  0  0
  1  2  1  0  0  0
  2  3  1  0  0  0
  2  4  1  0  0  0
M  END
> <minimizedAffinity>
-2.24326

$$$$



  4  3  0  0  0  0  0  0  0  0999 V2000
  -34.2348   69.1926   39.8754 C   0  0  0  0  0  0  0  0  0  0  0  0
  -34.4259   67.7322   40.1163 C   0  0  0  0  0  0  0  0  0  0  0  0
  -34.4972   67.3707   41.5833 C   0  0  0  0  0  0  0  0  0  0  0  0
  -35.5967   67.1768   39.3425 C   0  0  0  0  0  0  0  0  0  0  0  0
  1  2  1  0  0  0
  2  3  1  0  0  0
  2  4  1  0  0  0
M  END
> <minimizedAffinity>
-2.23252

$$$$



  4  3  0  0  0  0  0  0  0  0999 V2000
  -38.8141   63.2538   31.9446 C   0  0  0  0  0  0  0  0  0  0  0  0
  -40.1588   63.8162   32.2655 C   0  0  0  0  0  0  0  0  0  0  0  0
  -40.9009   64.3266   31.0504 C   0  0  0  0  0  0  0  0  0  0  0  0
  -40.9974   62.8575   33.0753 C   0  0  0  0  0  0  0  0  0  0  0  0
  1  2  1  0  0  0
  2  3  1  0  0  0
  2  4  1  0  0  0
M  END
> <minimizedAffinity>
-2.23126

$$$$



  4  3  0  0  0  0  0  0  0  0999 V2000
  -34.3633   70.9605   28.5650 C   0  0  0  0  0  0  0  0  0  0  0  0
  -34.0979   71.5193   27.2068 C   0  0  0  0  0  0  0  0  0  0  0  0
  -33.9793   73.0270   27.1913 C   0  0  0  0  0  0  0  0  0  0  0  0
  -32.9181   70.8553   26.5396 C   0  0  0  0  0  0  0  0  0  0  0  0
  1  2  1  0  0  0
  2  3  1  0  0  0
  2  4  1  0  0  0
M  END
> <minimizedAffinity>
-2.20896

$$$$



  4  3  0  0  0  0  0  0  0  0999 V2000
  -39.0681   64.7435   32.5953 C   0  0  0  0  0  0  0  0  0  0  0  0
  -40.0664   63.8384   31.9538 C   0  0  0  0  0  0  0  0  0  0  0  0
  -40.8968   63.0596   32.9497 C   0  0  0  0  0  0  0  0  0  0  0  0
  -40.9275   64.5633   30.9484 C   0  0  0  0  0  0  0  0  0  0  0  0
  1  2  1  0  0  0
  2  3  1  0  0  0
  2  4  1  0  0  0
M  END
> <minimizedAffinity>
-2.20399

$$$$



  4  3  0  0  0  0  0  0  0  0999 V2000
  -32.5108   70.5212   26.5229 C   0  0  0  0  0  0  0  0  0  0  0  0
  -33.6547   71.4092   26.8840 C   0  0  0  0  0  0  0  0  0  0  0  0
  -34.3307   71.0194   28.1798 C   0  0  0  0  0  0  0  0  0  0  0  0
  -33.2690   72.8683   26.8675 C   0  0  0  0  0  0  0  0  0  0  0  0
  1  2  1  0  0  0
  2  3  1  0  0  0
  2  4  1  0  0  0
M  END
> <minimizedAffinity>
-2.20314

$$$$



  4  3  0  0  0  0  0  0  0  0999 V2000
  -35.8659   70.6006   30.5219 C   0  0  0  0  0  0  0  0  0  0  0  0
  -36.1520   70.0711   29.1562 C   0  0  0  0  0  0  0  0  0  0  0  0
  -37.3263   69.1186   29.1162 C   0  0  0  0  0  0  0  0  0  0  0  0
  -36.2877   71.1746   28.1355 C   0  0  0  0  0  0  0  0  0  0  0  0
  1  2  1  0  0  0
  2  3  1  0  0  0
  2  4  1  0  0  0
M  END
> <minimizedAffinity>
-2.20122

$$$$



  4  3  0  0  0  0  0  0  0  0999 V2000
  -40.7686   64.7955   30.9621 C   0  0  0  0  0  0  0  0  0  0  0  0
  -39.9980   63.8295   31.7991 C   0  0  0  0  0  0  0  0  0  0  0  0
  -38.7460   64.4254   32.4035 C   0  0  0  0  0  0  0  0  0  0  0  0
  -40.8635   63.1634   32.8408 C   0  0  0  0  0  0  0  0  0  0  0  0
  1  2  1  0  0  0
  2  3  1  0  0  0
  2  4  1  0  0  0
M  END
> <minimizedAffinity>
-2.20121

$$$$



  4  3  0  0  0  0  0  0  0  0999 V2000
  -38.9574   63.1970   32.0396 C   0  0  0  0  0  0  0  0  0  0  0  0
  -37.8104   64.1511   32.0771 C   0  0  0  0  0  0  0  0  0  0  0  0
  -36.4906   63.5175   31.6971 C   0  0  0  0  0  0  0  0  0  0  0  0
  -38.0849   65.4017   31.2778 C   0  0  0  0  0  0  0  0  0  0  0  0
  1  2  1  0  0  0
  2  3  1  0  0  0
  2  4  1  0  0  0
M  END
> <minimizedAffinity>
-2.19975

$$$$



  4  3  0  0  0  0  0  0  0  0999 V2000
  -39.5604   67.7465   32.2158 C   0  0  0  0  0  0  0  0  0  0  0  0
  -40.0159   67.0291   30.9890 C   0  0  0  0  0  0  0  0  0  0  0  0
  -38.8838   66.4031   30.2052 C   0  0  0  0  0  0  0  0  0  0  0  0
  -41.1119   66.0347   31.2859 C   0  0  0  0  0  0  0  0  0  0  0  0
  1  2  1  0  0  0
  2  3  1  0  0  0
  2  4  1  0  0  0
M  END
> <minimizedAffinity>
-2.19613

$$$$



  4  3  0  0  0  0  0  0  0  0999 V2000
  -34.7012   73.0649   27.5973 C   0  0  0  0  0  0  0  0  0  0  0  0
  -34.6404   71.5841   27.4214 C   0  0  0  0  0  0  0  0  0  0  0  0
  -33.3151   71.0986   26.8778 C   0  0  0  0  0  0  0  0  0  0  0  0
  -35.0382   70.8458   28.6763 C   0  0  0  0  0  0  0  0  0  0  0  0
  1  2  1  0  0  0
  2  3  1  0  0  0
  2  4  1  0  0  0
M  END
> <minimizedAffinity>
-2.18175

$$$$



  4  3  0  0  0  0  0  0  0  0999 V2000
  -35.1884   70.8889   28.4197 C   0  0  0  0  0  0  0  0  0  0  0  0
  -35.4859   71.9963   27.4643 C   0  0  0  0  0  0  0  0  0  0  0  0
  -36.9563   72.3419   27.3859 C   0  0  0  0  0  0  0  0  0  0  0  0
  -34.6346   73.2152   27.7240 C   0  0  0  0  0  0  0  0  0  0  0  0
  1  2  1  0  0  0
  2  3  1  0  0  0
  2  4  1  0  0  0
M  END
> <minimizedAffinity>
-2.18137

$$$$



  4  3  0  0  0  0  0  0  0  0999 V2000
  -37.5502   64.5944   31.8118 C   0  0  0  0  0  0  0  0  0  0  0  0
  -38.1162   63.3048   32.3061 C   0  0  0  0  0  0  0  0  0  0  0  0
  -39.6277   63.2615   32.2732 C   0  0  0  0  0  0  0  0  0  0  0  0
  -37.5040   62.1124   31.6123 C   0  0  0  0  0  0  0  0  0  0  0  0
  1  2  1  0  0  0
  2  3  1  0  0  0
  2  4  1  0  0  0
M  END
> <minimizedAffinity>
-2.17781

$$$$



  4  3  0  0  0  0  0  0  0  0999 V2000
  -44.1290   62.0798   35.5654 C   0  0  0  0  0  0  0  0  0  0  0  0
  -43.0213   61.3982   34.8334 C   0  0  0  0  0  0  0  0  0  0  0  0
  -43.5061   60.4595   33.7511 C   0  0  0  0  0  0  0  0  0  0  0  0
  -41.9976   62.3771   34.3120 C   0  0  0  0  0  0  0  0  0  0  0  0
  1  2  1  0  0  0
  2  3  1  0  0  0
  2  4  1  0  0  0
M  END
> <minimizedAffinity>
-2.16996

$$$$



  4  3  0  0  0  0  0  0  0  0999 V2000
  -37.8088   70.8937   27.3278 C   0  0  0  0  0  0  0  0  0  0  0  0
  -37.3359   72.2014   27.8697 C   0  0  0  0  0  0  0  0  0  0  0  0
  -37.5586   72.3495   29.3584 C   0  0  0  0  0  0  0  0  0  0  0  0
  -35.9065   72.4935   27.4829 C   0  0  0  0  0  0  0  0  0  0  0  0
  1  2  1  0  0  0
  2  3  1  0  0  0
  2  4  1  0  0  0
M  END
> <minimizedAffinity>
-2.16255

$$$$



  4  3  0  0  0  0  0  0  0  0999 V2000
  -34.5498   71.5156   27.4771 C   0  0  0  0  0  0  0  0  0  0  0  0
  -35.8564   71.5820   28.1954 C   0  0  0  0  0  0  0  0  0  0  0  0
  -36.9532   72.2373   27.3858 C   0  0  0  0  0  0  0  0  0  0  0  0
  -36.2799   70.2358   28.7306 C   0  0  0  0  0  0  0  0  0  0  0  0
  1  2  1  0  0  0
  2  3  1  0  0  0
  2  4  1  0  0  0
M  END
> <minimizedAffinity>
-2.16158

$$$$



  4  3  0  0  0  0  0  0  0  0999 V2000
  -36.9999   72.1157   27.4880 C   0  0  0  0  0  0  0  0  0  0  0  0
  -35.5244   71.8915   27.4753 C   0  0  0  0  0  0  0  0  0  0  0  0
  -34.7226   73.1709   27.5653 C   0  0  0  0  0  0  0  0  0  0  0  0
  -35.0936   70.8835   28.5127 C   0  0  0  0  0  0  0  0  0  0  0  0
  1  2  1  0  0  0
  2  3  1  0  0  0
  2  4  1  0  0  0
M  END
> <minimizedAffinity>
-2.15096

$$$$



  4  3  0  0  0  0  0  0  0  0999 V2000
  -32.1292   70.7407   28.6442 C   0  0  0  0  0  0  0  0  0  0  0  0
  -33.0785   71.2732   27.6231 C   0  0  0  0  0  0  0  0  0  0  0  0
  -32.7876   70.7850   26.2214 C   0  0  0  0  0  0  0  0  0  0  0  0
  -34.5188   71.0430   28.0114 C   0  0  0  0  0  0  0  0  0  0  0  0
  1  2  1  0  0  0
  2  3  1  0  0  0
  2  4  1  0  0  0
M  END
> <minimizedAffinity>
-2.12936

$$$$



  4  3  0  0  0  0  0  0  0  0999 V2000
  -34.0119   69.1158   40.5286 C   0  0  0  0  0  0  0  0  0  0  0  0
  -34.8164   67.9389   40.9705 C   0  0  0  0  0  0  0  0  0  0  0  0
  -35.1150   66.9633   39.8540 C   0  0  0  0  0  0  0  0  0  0  0  0
  -34.2085   67.2527   42.1696 C   0  0  0  0  0  0  0  0  0  0  0  0
  1  2  1  0  0  0
  2  3  1  0  0  0
  2  4  1  0  0  0
M  END
> <minimizedAffinity>
-2.12479

$$$$



  4  3  0  0  0  0  0  0  0  0999 V2000
  -33.3293   71.3818   26.7744 C   0  0  0  0  0  0  0  0  0  0  0  0
  -33.6830   72.7454   27.2673 C   0  0  0  0  0  0  0  0  0  0  0  0
  -33.0212   73.8568   26.4834 C   0  0  0  0  0  0  0  0  0  0  0  0
  -35.1758   72.9425   27.3719 C   0  0  0  0  0  0  0  0  0  0  0  0
  1  2  1  0  0  0
  2  3  1  0  0  0
  2  4  1  0  0  0
M  END
> <minimizedAffinity>
-2.12186

$$$$



  4  3  0  0  0  0  0  0  0  0999 V2000
  -41.3634   65.5920   31.1920 C   0  0  0  0  0  0  0  0  0  0  0  0
  -39.9023   65.3607   31.3898 C   0  0  0  0  0  0  0  0  0  0  0  0
  -39.5441   63.9014   31.5622 C   0  0  0  0  0  0  0  0  0  0  0  0
  -39.0718   66.0208   30.3162 C   0  0  0  0  0  0  0  0  0  0  0  0
  1  2  1  0  0  0
  2  3  1  0  0  0
  2  4  1  0  0  0
M  END
> <minimizedAffinity>
-2.12012

$$$$



  4  3  0  0  0  0  0  0  0  0999 V2000
  -36.9297   72.5699   27.3771 C   0  0  0  0  0  0  0  0  0  0  0  0
  -36.7420   71.0995   27.5510 C   0  0  0  0  0  0  0  0  0  0  0  0
  -35.6198   70.7464   28.5016 C   0  0  0  0  0  0  0  0  0  0  0  0
  -38.0293   70.4014   27.9163 C   0  0  0  0  0  0  0  0  0  0  0  0
  1  2  1  0  0  0
  2  3  1  0  0  0
  2  4  1  0  0  0
M  END
> <minimizedAffinity>
-2.11572

$$$$



  4  3  0  0  0  0  0  0  0  0999 V2000
  -39.5532   68.8822   29.9500 C   0  0  0  0  0  0  0  0  0  0  0  0
  -39.4032   67.8019   30.9688 C   0  0  0  0  0  0  0  0  0  0  0  0
  -39.0891   68.3229   32.3536 C   0  0  0  0  0  0  0  0  0  0  0  0
  -40.5824   66.8599   30.9763 C   0  0  0  0  0  0  0  0  0  0  0  0
  1  2  1  0  0  0
  2  3  1  0  0  0
  2  4  1  0  0  0
M  END
> <minimizedAffinity>
-2.11472

$$$$



  4  3  0  0  0  0  0  0  0  0999 V2000
  -35.0739   70.9858   30.6302 C   0  0  0  0  0  0  0  0  0  0  0  0
  -35.7178   70.9208   29.2854 C   0  0  0  0  0  0  0  0  0  0  0  0
  -34.7310   71.0132   28.1428 C   0  0  0  0  0  0  0  0  0  0  0  0
  -36.6273   69.7242   29.1478 C   0  0  0  0  0  0  0  0  0  0  0  0
  1  2  1  0  0  0
  2  3  1  0  0  0
  2  4  1  0  0  0
M  END
> <minimizedAffinity>
-2.09603

$$$$



  4  3  0  0  0  0  0  0  0  0999 V2000
  -36.4567   68.4060   41.0676 C   0  0  0  0  0  0  0  0  0  0  0  0
  -35.3076   67.6021   40.5571 C   0  0  0  0  0  0  0  0  0  0  0  0
  -35.5165   67.0823   39.1521 C   0  0  0  0  0  0  0  0  0  0  0  0
  -33.9951   68.3341   40.6968 C   0  0  0  0  0  0  0  0  0  0  0  0
  1  2  1  0  0  0
  2  3  1  0  0  0
  2  4  1  0  0  0
M  END
> <minimizedAffinity>
-2.07279

$$$$



  4  3  0  0  0  0  0  0  0  0999 V2000
  -41.6086   61.9469   36.9642 C   0  0  0  0  0  0  0  0  0  0  0  0
  -41.5061   61.0756   35.7568 C   0  0  0  0  0  0  0  0  0  0  0  0
  -40.1281   60.4843   35.5592 C   0  0  0  0  0  0  0  0  0  0  0  0
  -42.5820   60.0175   35.7264 C   0  0  0  0  0  0  0  0  0  0  0  0
  1  2  1  0  0  0
  2  3  1  0  0  0
  2  4  1  0  0  0
M  END
> <minimizedAffinity>
-2.05812

$$$$



  4  3  0  0  0  0  0  0  0  0999 V2000
  -33.6311   72.3056   27.0372 C   0  0  0  0  0  0  0  0  0  0  0  0
  -32.6636   71.6110   26.1378 C   0  0  0  0  0  0  0  0  0  0  0  0
  -31.4819   72.4715   25.7493 C   0  0  0  0  0  0  0  0  0  0  0  0
  -32.2293   70.2762   26.6926 C   0  0  0  0  0  0  0  0  0  0  0  0
  1  2  1  0  0  0
  2  3  1  0  0  0
  2  4  1  0  0  0
M  END
> <minimizedAffinity>
-2.03279

$$$$



  4  3  0  0  0  0  0  0  0  0999 V2000
  -39.4171   71.8507   29.4276 C   0  0  0  0  0  0  0  0  0  0  0  0
  -39.3976   70.7191   28.4546 C   0  0  0  0  0  0  0  0  0  0  0  0
  -38.3701   69.6601   28.7871 C   0  0  0  0  0  0  0  0  0  0  0  0
  -40.7695   70.1259   28.2450 C   0  0  0  0  0  0  0  0  0  0  0  0
  1  2  1  0  0  0
  2  3  1  0  0  0
  2  4  1  0  0  0
M  END
> <minimizedAffinity>
-2.03044

$$$$



  4  3  0  0  0  0  0  0  0  0999 V2000
  -34.7719   67.4354   40.8215 C   0  0  0  0  0  0  0  0  0  0  0  0
  -34.2005   67.8916   42.1226 C   0  0  0  0  0  0  0  0  0  0  0  0
  -33.8246   66.7531   43.0446 C   0  0  0  0  0  0  0  0  0  0  0  0
  -33.0604   68.8623   41.9336 C   0  0  0  0  0  0  0  0  0  0  0  0
  1  2  1  0  0  0
  2  3  1  0  0  0
  2  4  1  0  0  0
M  END
> <minimizedAffinity>
-2.02645

$$$$



  4  3  0  0  0  0  0  0  0  0999 V2000
  -34.7096   67.3140   40.7673 C   0  0  0  0  0  0  0  0  0  0  0  0
  -34.2373   67.4923   42.1718 C   0  0  0  0  0  0  0  0  0  0  0  0
  -32.9235   68.2348   42.2730 C   0  0  0  0  0  0  0  0  0  0  0  0
  -35.2981   68.1028   43.0550 C   0  0  0  0  0  0  0  0  0  0  0  0
  1  2  1  0  0  0
  2  3  1  0  0  0
  2  4  1  0  0  0
M  END
> <minimizedAffinity>
-2.01252

$$$$



  4  3  0  0  0  0  0  0  0  0999 V2000
  -34.1114   69.7301   40.2161 C   0  0  0  0  0  0  0  0  0  0  0  0
  -33.8244   68.3774   40.7776 C   0  0  0  0  0  0  0  0  0  0  0  0
  -33.0648   68.4196   42.0848 C   0  0  0  0  0  0  0  0  0  0  0  0
  -35.0677   67.5275   40.8765 C   0  0  0  0  0  0  0  0  0  0  0  0
  1  2  1  0  0  0
  2  3  1  0  0  0
  2  4  1  0  0  0
M  END
> <minimizedAffinity>
-2.00519

$$$$



  4  3  0  0  0  0  0  0  0  0999 V2000
  -37.4036   72.3856   29.7292 C   0  0  0  0  0  0  0  0  0  0  0  0
  -36.4233   72.0279   28.6622 C   0  0  0  0  0  0  0  0  0  0  0  0
  -35.9573   70.5907   28.7334 C   0  0  0  0  0  0  0  0  0  0  0  0
  -36.9246   72.3892   27.2853 C   0  0  0  0  0  0  0  0  0  0  0  0
  1  2  1  0  0  0
  2  3  1  0  0  0
  2  4  1  0  0  0
M  END
> <minimizedAffinity>
-2.00326

$$$$



  4  3  0  0  0  0  0  0  0  0999 V2000
  -33.1634   68.2912   41.9718 C   0  0  0  0  0  0  0  0  0  0  0  0
  -34.4780   67.5880   41.9022 C   0  0  0  0  0  0  0  0  0  0  0  0
  -35.5932   68.3303   42.6043 C   0  0  0  0  0  0  0  0  0  0  0  0
  -34.8513   67.2194   40.4870 C   0  0  0  0  0  0  0  0  0  0  0  0
  1  2  1  0  0  0
  2  3  1  0  0  0
  2  4  1  0  0  0
M  END
> <minimizedAffinity>
-2.00066

$$$$



  4  3  0  0  0  0  0  0  0  0999 V2000
  -34.9461   67.5127   41.1189 C   0  0  0  0  0  0  0  0  0  0  0  0
  -33.7216   68.3561   40.9886 C   0  0  0  0  0  0  0  0  0  0  0  0
  -34.0094   69.7609   40.5075 C   0  0  0  0  0  0  0  0  0  0  0  0
  -32.8920   68.3522   42.2494 C   0  0  0  0  0  0  0  0  0  0  0  0
  1  2  1  0  0  0
  2  3  1  0  0  0
  2  4  1  0  0  0
M  END
> <minimizedAffinity>
-1.97297

$$$$



  4  3  0  0  0  0  0  0  0  0999 V2000
  -32.7713   67.9845   42.6163 C   0  0  0  0  0  0  0  0  0  0  0  0
  -33.9174   67.1069   42.9953 C   0  0  0  0  0  0  0  0  0  0  0  0
  -33.5526   66.0513   44.0153 C   0  0  0  0  0  0  0  0  0  0  0  0
  -35.1277   67.9033   43.4181 C   0  0  0  0  0  0  0  0  0  0  0  0
  1  2  1  0  0  0
  2  3  1  0  0  0
  2  4  1  0  0  0
M  END
> <minimizedAffinity>
-1.94787

$$$$



  4  3  0  0  0  0  0  0  0  0999 V2000
  -41.7536   66.0809   33.5027 C   0  0  0  0  0  0  0  0  0  0  0  0
  -40.5699   66.5316   32.7132 C   0  0  0  0  0  0  0  0  0  0  0  0
  -40.7997   66.5029   31.2185 C   0  0  0  0  0  0  0  0  0  0  0  0
  -40.0539   67.8718   33.1775 C   0  0  0  0  0  0  0  0  0  0  0  0
  1  2  1  0  0  0
  2  3  1  0  0  0
  2  4  1  0  0  0
M  END
> <minimizedAffinity>
-1.94271

$$$$



  4  3  0  0  0  0  0  0  0  0999 V2000
  -40.3730   60.8281   35.7754 C   0  0  0  0  0  0  0  0  0  0  0  0
  -39.6800   61.7101   34.7908 C   0  0  0  0  0  0  0  0  0  0  0  0
  -39.6784   63.1690   35.1898 C   0  0  0  0  0  0  0  0  0  0  0  0
  -38.2925   61.2152   34.4624 C   0  0  0  0  0  0  0  0  0  0  0  0
  1  2  1  0  0  0
  2  3  1  0  0  0
  2  4  1  0  0  0
M  END
> <minimizedAffinity>
-1.93734

$$$$



  4  3  0  0  0  0  0  0  0  0999 V2000
  -35.3572   72.8017   29.6534 C   0  0  0  0  0  0  0  0  0  0  0  0
  -34.4893   72.4473   28.4921 C   0  0  0  0  0  0  0  0  0  0  0  0
  -34.6394   71.0092   28.0481 C   0  0  0  0  0  0  0  0  0  0  0  0
  -34.6561   73.4112   27.3428 C   0  0  0  0  0  0  0  0  0  0  0  0
  1  2  1  0  0  0
  2  3  1  0  0  0
  2  4  1  0  0  0
M  END
> <minimizedAffinity>
-1.93482

$$$$



  4  3  0  0  0  0  0  0  0  0999 V2000
  -35.7211   72.6690   27.4427 C   0  0  0  0  0  0  0  0  0  0  0  0
  -36.0086   72.0512   28.7706 C   0  0  0  0  0  0  0  0  0  0  0  0
  -35.6602   70.5808   28.8359 C   0  0  0  0  0  0  0  0  0  0  0  0
  -35.3864   72.8277   29.9055 C   0  0  0  0  0  0  0  0  0  0  0  0
  1  2  1  0  0  0
  2  3  1  0  0  0
  2  4  1  0  0  0
M  END
> <minimizedAffinity>
-1.93348

$$$$



  4  3  0  0  0  0  0  0  0  0999 V2000
  -35.2238   70.7618   28.9549 C   0  0  0  0  0  0  0  0  0  0  0  0
  -35.3451   70.9031   30.4357 C   0  0  0  0  0  0  0  0  0  0  0  0
  -35.2881   72.3389   30.9079 C   0  0  0  0  0  0  0  0  0  0  0  0
  -36.5534   70.1798   30.9787 C   0  0  0  0  0  0  0  0  0  0  0  0
  1  2  1  0  0  0
  2  3  1  0  0  0
  2  4  1  0  0  0
M  END
> <minimizedAffinity>
-1.92786

$$$$



  4  3  0  0  0  0  0  0  0  0999 V2000
  -33.3980   73.7224   26.6876 C   0  0  0  0  0  0  0  0  0  0  0  0
  -33.9642   72.6535   27.5618 C   0  0  0  0  0  0  0  0  0  0  0  0
  -35.4465   72.4334   27.3565 C   0  0  0  0  0  0  0  0  0  0  0  0
  -33.1849   71.3648   27.4613 C   0  0  0  0  0  0  0  0  0  0  0  0
  1  2  1  0  0  0
  2  3  1  0  0  0
  2  4  1  0  0  0
M  END
> <minimizedAffinity>
-1.92407

$$$$



  4  3  0  0  0  0  0  0  0  0999 V2000
  -33.2827   71.3916   28.7263 C   0  0  0  0  0  0  0  0  0  0  0  0
  -32.6537   71.1634   30.0604 C   0  0  0  0  0  0  0  0  0  0  0  0
  -31.2813   70.5332   29.9765 C   0  0  0  0  0  0  0  0  0  0  0  0
  -32.6484   72.4125   30.9075 C   0  0  0  0  0  0  0  0  0  0  0  0
  1  2  1  0  0  0
  2  3  1  0  0  0
  2  4  1  0  0  0
M  END
> <minimizedAffinity>
-1.91069

$$$$



  4  3  0  0  0  0  0  0  0  0999 V2000
  -31.4162   72.4390   27.6303 C   0  0  0  0  0  0  0  0  0  0  0  0
  -31.4276   71.0438   27.1005 C   0  0  0  0  0  0  0  0  0  0  0  0
  -31.0984   70.0023   28.1468 C   0  0  0  0  0  0  0  0  0  0  0  0
  -32.7095   70.7231   26.3713 C   0  0  0  0  0  0  0  0  0  0  0  0
  1  2  1  0  0  0
  2  3  1  0  0  0
  2  4  1  0  0  0
M  END
> <minimizedAffinity>
-1.90511

$$$$



  4  3  0  0  0  0  0  0  0  0999 V2000
  -34.4121   73.0489   29.5856 C   0  0  0  0  0  0  0  0  0  0  0  0
  -34.1162   71.6149   29.8743 C   0  0  0  0  0  0  0  0  0  0  0  0
  -32.7476   71.3950   30.4797 C   0  0  0  0  0  0  0  0  0  0  0  0
  -35.2045   70.9634   30.6923 C   0  0  0  0  0  0  0  0  0  0  0  0
  1  2  1  0  0  0
  2  3  1  0  0  0
  2  4  1  0  0  0
M  END
> <minimizedAffinity>
-1.88467

$$$$



  4  3  0  0  0  0  0  0  0  0999 V2000
  -34.1025   73.2754   27.3184 C   0  0  0  0  0  0  0  0  0  0  0  0
  -34.4269   73.4025   28.7696 C   0  0  0  0  0  0  0  0  0  0  0  0
  -35.1489   72.1976   29.3306 C   0  0  0  0  0  0  0  0  0  0  0  0
  -33.2155   73.7662   29.5932 C   0  0  0  0  0  0  0  0  0  0  0  0
  1  2  1  0  0  0
  2  3  1  0  0  0
  2  4  1  0  0  0
M  END
> <minimizedAffinity>
-1.86961

$$$$



  4  3  0  0  0  0  0  0  0  0999 V2000
  -39.7734   63.5259   32.1971 C   0  0  0  0  0  0  0  0  0  0  0  0
  -40.1875   63.0868   33.5621 C   0  0  0  0  0  0  0  0  0  0  0  0
  -40.2657   64.2215   34.5591 C   0  0  0  0  0  0  0  0  0  0  0  0
  -41.4577   62.2720   33.5363 C   0  0  0  0  0  0  0  0  0  0  0  0
  1  2  1  0  0  0
  2  3  1  0  0  0
  2  4  1  0  0  0
M  END
> <minimizedAffinity>
-1.85206

$$$$



  4  3  0  0  0  0  0  0  0  0999 V2000
  -30.9566   72.4222   29.1136 C   0  0  0  0  0  0  0  0  0  0  0  0
  -31.7410   71.2950   29.6982 C   0  0  0  0  0  0  0  0  0  0  0  0
  -33.1020   71.1184   29.0625 C   0  0  0  0  0  0  0  0  0  0  0  0
  -30.9566   70.0057   29.7158 C   0  0  0  0  0  0  0  0  0  0  0  0
  1  2  1  0  0  0
  2  3  1  0  0  0
  2  4  1  0  0  0
M  END
> <minimizedAffinity>
-1.85154

$$$$



  4  3  0  0  0  0  0  0  0  0999 V2000
  -32.5653   71.3545   30.4930 C   0  0  0  0  0  0  0  0  0  0  0  0
  -32.4247   72.8402   30.5115 C   0  0  0  0  0  0  0  0  0  0  0  0
  -31.1332   73.3281   29.8936 C   0  0  0  0  0  0  0  0  0  0  0  0
  -33.6282   73.5325   29.9196 C   0  0  0  0  0  0  0  0  0  0  0  0
  1  2  1  0  0  0
  2  3  1  0  0  0
  2  4  1  0  0  0
M  END
> <minimizedAffinity>
-1.84598

$$$$



  4  3  0  0  0  0  0  0  0  0999 V2000
  -35.7942   70.9277   30.8292 C   0  0  0  0  0  0  0  0  0  0  0  0
  -36.2786   72.2983   30.4913 C   0  0  0  0  0  0  0  0  0  0  0  0
  -37.4751   72.3004   29.5660 C   0  0  0  0  0  0  0  0  0  0  0  0
  -36.5189   73.1362   31.7235 C   0  0  0  0  0  0  0  0  0  0  0  0
  1  2  1  0  0  0
  2  3  1  0  0  0
  2  4  1  0  0  0
M  END
> <minimizedAffinity>
-1.83878

$$$$



  4  3  0  0  0  0  0  0  0  0999 V2000
  -36.0507   70.3223   30.8398 C   0  0  0  0  0  0  0  0  0  0  0  0
  -36.0500   71.2655   29.6831 C   0  0  0  0  0  0  0  0  0  0  0  0
  -35.8504   72.7094   30.0869 C   0  0  0  0  0  0  0  0  0  0  0  0
  -35.0807   70.8434   28.6060 C   0  0  0  0  0  0  0  0  0  0  0  0
  1  2  1  0  0  0
  2  3  1  0  0  0
  2  4  1  0  0  0
M  END
> <minimizedAffinity>
-1.83334

$$$$



  4  3  0  0  0  0  0  0  0  0999 V2000
  -37.4328   72.3085   28.1632 C   0  0  0  0  0  0  0  0  0  0  0  0
  -36.9661   72.2067   29.5772 C   0  0  0  0  0  0  0  0  0  0  0  0
  -35.5579   72.7193   29.7823 C   0  0  0  0  0  0  0  0  0  0  0  0
  -37.9400   72.8352   30.5439 C   0  0  0  0  0  0  0  0  0  0  0  0
  1  2  1  0  0  0
  2  3  1  0  0  0
  2  4  1  0  0  0
M  END
> <minimizedAffinity>
-1.82169

$$$$



  4  3  0  0  0  0  0  0  0  0999 V2000
  -36.0062   72.3728   29.6272 C   0  0  0  0  0  0  0  0  0  0  0  0
  -35.0243   71.2578   29.4861 C   0  0  0  0  0  0  0  0  0  0  0  0
  -34.5683   71.0369   28.0610 C   0  0  0  0  0  0  0  0  0  0  0  0
  -33.8585   71.4037   30.4336 C   0  0  0  0  0  0  0  0  0  0  0  0
  1  2  1  0  0  0
  2  3  1  0  0  0
  2  4  1  0  0  0
M  END
> <minimizedAffinity>
-1.81916

$$$$



  4  3  0  0  0  0  0  0  0  0999 V2000
  -47.2612   67.8663   34.9221 C   0  0  0  0  0  0  0  0  0  0  0  0
  -48.4776   67.0016   34.9133 C   0  0  0  0  0  0  0  0  0  0  0  0
  -48.7526   66.3671   33.5681 C   0  0  0  0  0  0  0  0  0  0  0  0
  -48.4566   65.9796   36.0237 C   0  0  0  0  0  0  0  0  0  0  0  0
  1  2  1  0  0  0
  2  3  1  0  0  0
  2  4  1  0  0  0
M  END
> <minimizedAffinity>
-1.80198

$$$$



  4  3  0  0  0  0  0  0  0  0999 V2000
  -43.3248   60.3629   35.7727 C   0  0  0  0  0  0  0  0  0  0  0  0
  -44.4032   61.0682   36.5258 C   0  0  0  0  0  0  0  0  0  0  0  0
  -44.0811   62.5166   36.8190 C   0  0  0  0  0  0  0  0  0  0  0  0
  -45.7517   60.9141   35.8657 C   0  0  0  0  0  0  0  0  0  0  0  0
  1  2  1  0  0  0
  2  3  1  0  0  0
  2  4  1  0  0  0
M  END
> <minimizedAffinity>
-1.79819

$$$$



  4  3  0  0  0  0  0  0  0  0999 V2000
  -38.6160   66.5930   31.4266 C   0  0  0  0  0  0  0  0  0  0  0  0
  -39.2454   67.8383   31.9561 C   0  0  0  0  0  0  0  0  0  0  0  0
  -39.9832   67.6298   33.2599 C   0  0  0  0  0  0  0  0  0  0  0  0
  -38.2619   68.9799   32.0426 C   0  0  0  0  0  0  0  0  0  0  0  0
  1  2  1  0  0  0
  2  3  1  0  0  0
  2  4  1  0  0  0
M  END
> <minimizedAffinity>
-1.79660

$$$$



  4  3  0  0  0  0  0  0  0  0999 V2000
  -33.1070   73.6274   39.8613 C   0  0  0  0  0  0  0  0  0  0  0  0
  -32.8506   72.3229   39.1831 C   0  0  0  0  0  0  0  0  0  0  0  0
  -33.6887   71.1883   39.7288 C   0  0  0  0  0  0  0  0  0  0  0  0
  -32.9601   72.4316   37.6817 C   0  0  0  0  0  0  0  0  0  0  0  0
  1  2  1  0  0  0
  2  3  1  0  0  0
  2  4  1  0  0  0
M  END
> <minimizedAffinity>
-1.74643

$$$$



  4  3  0  0  0  0  0  0  0  0999 V2000
  -32.8922   72.4599   37.6649 C   0  0  0  0  0  0  0  0  0  0  0  0
  -32.7857   72.3985   39.1523 C   0  0  0  0  0  0  0  0  0  0  0  0
  -33.0650   73.7222   39.8287 C   0  0  0  0  0  0  0  0  0  0  0  0
  -33.6167   71.2820   39.7361 C   0  0  0  0  0  0  0  0  0  0  0  0
  1  2  1  0  0  0
  2  3  1  0  0  0
  2  4  1  0  0  0
M  END
> <minimizedAffinity>
-1.74392

$$$$



  4  3  0  0  0  0  0  0  0  0999 V2000
  -41.1117   62.7623   33.2051 C   0  0  0  0  0  0  0  0  0  0  0  0
  -41.5914   63.6162   34.3313 C   0  0  0  0  0  0  0  0  0  0  0  0
  -40.9339   63.2897   35.6537 C   0  0  0  0  0  0  0  0  0  0  0  0
  -41.5024   65.0876   34.0069 C   0  0  0  0  0  0  0  0  0  0  0  0
  1  2  1  0  0  0
  2  3  1  0  0  0
  2  4  1  0  0  0
M  END
> <minimizedAffinity>
-1.73399

$$$$



  4  3  0  0  0  0  0  0  0  0999 V2000
  -39.4427   65.4599   33.1351 C   0  0  0  0  0  0  0  0  0  0  0  0
  -40.2917   66.5221   33.7504 C   0  0  0  0  0  0  0  0  0  0  0  0
  -40.0212   67.9027   33.1951 C   0  0  0  0  0  0  0  0  0  0  0  0
  -41.7597   66.1745   33.7036 C   0  0  0  0  0  0  0  0  0  0  0  0
  1  2  1  0  0  0
  2  3  1  0  0  0
  2  4  1  0  0  0
M  END
> <minimizedAffinity>
-1.71737

$$$$



  4  3  0  0  0  0  0  0  0  0999 V2000
  -40.3770   66.8772   40.2981 C   0  0  0  0  0  0  0  0  0  0  0  0
  -39.9376   65.6821   39.5195 C   0  0  0  0  0  0  0  0  0  0  0  0
  -40.6382   64.4067   39.9321 C   0  0  0  0  0  0  0  0  0  0  0  0
  -40.0194   65.9123   38.0301 C   0  0  0  0  0  0  0  0  0  0  0  0
  1  2  1  0  0  0
  2  3  1  0  0  0
  2  4  1  0  0  0
M  END
> <minimizedAffinity>
-1.70936

$$$$



  4  3  0  0  0  0  0  0  0  0999 V2000
  -39.7092   65.6800   33.1506 C   0  0  0  0  0  0  0  0  0  0  0  0
  -40.9484   64.8506   33.0866 C   0  0  0  0  0  0  0  0  0  0  0  0
  -40.7363   63.5055   32.4282 C   0  0  0  0  0  0  0  0  0  0  0  0
  -41.6142   64.7185   34.4346 C   0  0  0  0  0  0  0  0  0  0  0  0
  1  2  1  0  0  0
  2  3  1  0  0  0
  2  4  1  0  0  0
M  END
> <minimizedAffinity>
-1.70809

$$$$



  4  3  0  0  0  0  0  0  0  0999 V2000
  -40.3576   64.7543   39.7971 C   0  0  0  0  0  0  0  0  0  0  0  0
  -41.1989   63.5374   39.9938 C   0  0  0  0  0  0  0  0  0  0  0  0
  -42.2585   63.7067   41.0597 C   0  0  0  0  0  0  0  0  0  0  0  0
  -41.7819   63.0335   38.6960 C   0  0  0  0  0  0  0  0  0  0  0  0
  1  2  1  0  0  0
  2  3  1  0  0  0
  2  4  1  0  0  0
M  END
> <minimizedAffinity>
-1.70121

$$$$



  4  3  0  0  0  0  0  0  0  0999 V2000
  -36.5315   72.8723   31.6223 C   0  0  0  0  0  0  0  0  0  0  0  0
  -36.9254   71.5621   31.0260 C   0  0  0  0  0  0  0  0  0  0  0  0
  -35.7573   70.6256   30.8111 C   0  0  0  0  0  0  0  0  0  0  0  0
  -38.0428   70.9004   31.7951 C   0  0  0  0  0  0  0  0  0  0  0  0
  1  2  1  0  0  0
  2  3  1  0  0  0
  2  4  1  0  0  0
M  END
> <minimizedAffinity>
-1.69538

$$$$



  4  3  0  0  0  0  0  0  0  0999 V2000
  -31.3286   73.1850   39.0596 C   0  0  0  0  0  0  0  0  0  0  0  0
  -32.6318   73.0264   39.7694 C   0  0  0  0  0  0  0  0  0  0  0  0
  -33.4060   71.8016   39.3354 C   0  0  0  0  0  0  0  0  0  0  0  0
  -32.4737   73.0898   41.2691 C   0  0  0  0  0  0  0  0  0  0  0  0
  1  2  1  0  0  0
  2  3  1  0  0  0
  2  4  1  0  0  0
M  END
> <minimizedAffinity>
-1.68780

$$$$



  4  3  0  0  0  0  0  0  0  0999 V2000
  -32.2802   72.9279   41.2557 C   0  0  0  0  0  0  0  0  0  0  0  0
  -32.6116   72.9104   39.8006 C   0  0  0  0  0  0  0  0  0  0  0  0
  -31.4048   73.0985   38.9083 C   0  0  0  0  0  0  0  0  0  0  0  0
  -33.4119   71.6904   39.4145 C   0  0  0  0  0  0  0  0  0  0  0  0
  1  2  1  0  0  0
  2  3  1  0  0  0
  2  4  1  0  0  0
M  END
> <minimizedAffinity>
-1.67617

$$$$
