3776


  5  4  0  0  0  0  0  0  0  0999 V2000
  -46.7678   70.7806   27.5982 O   0  0  0  0  0  0  0  0  0  0  0  0
  -47.5408   71.7021   26.8353 C   0  0  0  0  0  0  0  0  0  0  0  0
  -48.6184   72.3065   27.7225 C   0  0  0  0  0  0  0  0  0  0  0  0
  -46.6219   72.7662   26.2548 C   0  0  0  0  0  0  0  0  0  0  0  0
  -46.3473   71.2719   28.3245 H   0  0  0  0  0  0  0  0  0  0  0  0
  1  2  1  0  0  0
  1  5  1  0  0  0
  2  3  1  0  0  0
  2  4  1  0  0  0
M  END
> <minimizedAffinity>
-3.10630

$$$$
3776


  5  4  0  0  0  0  0  0  0  0999 V2000
  -35.8048   63.6990   30.3577 O   0  0  0  0  0  0  0  0  0  0  0  0
  -36.4100   63.1093   31.5044 C   0  0  0  0  0  0  0  0  0  0  0  0
  -37.5807   63.9712   31.9517 C   0  0  0  0  0  0  0  0  0  0  0  0
  -36.8461   61.6917   31.1670 C   0  0  0  0  0  0  0  0  0  0  0  0
  -36.4707   63.7285   29.6496 H   0  0  0  0  0  0  0  0  0  0  0  0
  1  2  1  0  0  0
  1  5  1  0  0  0
  2  3  1  0  0  0
  2  4  1  0  0  0
M  END
> <minimizedAffinity>
-2.98764

$$$$
3776


  5  4  0  0  0  0  0  0  0  0999 V2000
  -37.3275   61.9687   34.8026 O   0  0  0  0  0  0  0  0  0  0  0  0
  -37.1676   61.1701   33.6340 C   0  0  0  0  0  0  0  0  0  0  0  0
  -38.3748   60.2572   33.4826 C   0  0  0  0  0  0  0  0  0  0  0  0
  -36.9892   62.0787   32.4273 C   0  0  0  0  0  0  0  0  0  0  0  0
  -38.1270   62.5103   34.6880 H   0  0  0  0  0  0  0  0  0  0  0  0
  1  2  1  0  0  0
  1  5  1  0  0  0
  2  3  1  0  0  0
  2  4  1  0  0  0
M  END
> <minimizedAffinity>
-2.92972

$$$$
3776


  5  4  0  0  0  0  0  0  0  0999 V2000
  -37.6413   62.0485   35.0186 O   0  0  0  0  0  0  0  0  0  0  0  0
  -38.6930   61.4051   34.3053 C   0  0  0  0  0  0  0  0  0  0  0  0
  -38.0939   60.4744   33.2620 C   0  0  0  0  0  0  0  0  0  0  0  0
  -39.5806   60.6576   35.2887 C   0  0  0  0  0  0  0  0  0  0  0  0
  -37.1177   61.3611   35.4646 H   0  0  0  0  0  0  0  0  0  0  0  0
  1  2  1  0  0  0
  1  5  1  0  0  0
  2  3  1  0  0  0
  2  4  1  0  0  0
M  END
> <minimizedAffinity>
-2.78238

$$$$
3776


  5  4  0  0  0  0  0  0  0  0999 V2000
  -35.5894   63.9733   32.0539 O   0  0  0  0  0  0  0  0  0  0  0  0
  -36.8014   63.5611   31.4294 C   0  0  0  0  0  0  0  0  0  0  0  0
  -36.8612   62.0414   31.4068 C   0  0  0  0  0  0  0  0  0  0  0  0
  -37.9804   64.1637   32.1781 C   0  0  0  0  0  0  0  0  0  0  0  0
  -35.5942   63.6387   32.9670 H   0  0  0  0  0  0  0  0  0  0  0  0
  1  2  1  0  0  0
  1  5  1  0  0  0
  2  3  1  0  0  0
  2  4  1  0  0  0
M  END
> <minimizedAffinity>
-2.74817

$$$$
3776


  5  4  0  0  0  0  0  0  0  0999 V2000
  -37.4004   65.6862   29.2207 O   0  0  0  0  0  0  0  0  0  0  0  0
  -38.3394   66.6315   29.7240 C   0  0  0  0  0  0  0  0  0  0  0  0
  -38.4548   66.4685   31.2318 C   0  0  0  0  0  0  0  0  0  0  0  0
  -37.8941   68.0337   29.3379 C   0  0  0  0  0  0  0  0  0  0  0  0
  -36.5385   65.8730   29.6306 H   0  0  0  0  0  0  0  0  0  0  0  0
  1  2  1  0  0  0
  1  5  1  0  0  0
  2  3  1  0  0  0
  2  4  1  0  0  0
M  END
> <minimizedAffinity>
-2.74658

$$$$
3776


  5  4  0  0  0  0  0  0  0  0999 V2000
  -40.0224   60.3589   36.1884 O   0  0  0  0  0  0  0  0  0  0  0  0
  -39.9590   59.9445   34.8271 C   0  0  0  0  0  0  0  0  0  0  0  0
  -41.2651   60.3012   34.1339 C   0  0  0  0  0  0  0  0  0  0  0  0
  -38.7633   60.6048   34.1579 C   0  0  0  0  0  0  0  0  0  0  0  0
  -40.1399   61.3241   36.2024 H   0  0  0  0  0  0  0  0  0  0  0  0
  1  2  1  0  0  0
  1  5  1  0  0  0
  2  3  1  0  0  0
  2  4  1  0  0  0
M  END
> <minimizedAffinity>
-2.72729

$$$$
3776


  5  4  0  0  0  0  0  0  0  0999 V2000
  -37.2956   61.9206   34.7658 O   0  0  0  0  0  0  0  0  0  0  0  0
  -37.9740   61.7056   33.5320 C   0  0  0  0  0  0  0  0  0  0  0  0
  -37.0465   62.0657   32.3815 C   0  0  0  0  0  0  0  0  0  0  0  0
  -38.4323   60.2571   33.4584 C   0  0  0  0  0  0  0  0  0  0  0  0
  -36.5180   61.3369   34.7857 H   0  0  0  0  0  0  0  0  0  0  0  0
  1  2  1  0  0  0
  1  5  1  0  0  0
  2  3  1  0  0  0
  2  4  1  0  0  0
M  END
> <minimizedAffinity>
-2.72007

$$$$
3776


  5  4  0  0  0  0  0  0  0  0999 V2000
  -39.8090   60.1641   35.9128 O   0  0  0  0  0  0  0  0  0  0  0  0
  -39.9309   60.6757   34.5891 C   0  0  0  0  0  0  0  0  0  0  0  0
  -38.8119   60.1094   33.7285 C   0  0  0  0  0  0  0  0  0  0  0  0
  -41.3039   60.3203   34.0395 C   0  0  0  0  0  0  0  0  0  0  0  0
  -39.8961   59.1965   35.8690 H   0  0  0  0  0  0  0  0  0  0  0  0
  1  2  1  0  0  0
  1  5  1  0  0  0
  2  3  1  0  0  0
  2  4  1  0  0  0
M  END
> <minimizedAffinity>
-2.70495

$$$$
3776


  5  4  0  0  0  0  0  0  0  0999 V2000
  -37.0961   61.2646   30.5166 O   0  0  0  0  0  0  0  0  0  0  0  0
  -37.2980   62.1378   31.6237 C   0  0  0  0  0  0  0  0  0  0  0  0
  -37.2292   61.3349   32.9137 C   0  0  0  0  0  0  0  0  0  0  0  0
  -36.2530   63.2424   31.5872 C   0  0  0  0  0  0  0  0  0  0  0  0
  -36.2109   60.8714   30.6030 H   0  0  0  0  0  0  0  0  0  0  0  0
  1  2  1  0  0  0
  1  5  1  0  0  0
  2  3  1  0  0  0
  2  4  1  0  0  0
M  END
> <minimizedAffinity>
-2.67720

$$$$
3776


  5  4  0  0  0  0  0  0  0  0999 V2000
  -37.2601   61.9100   34.7356 O   0  0  0  0  0  0  0  0  0  0  0  0
  -38.5400   61.3108   34.5575 C   0  0  0  0  0  0  0  0  0  0  0  0
  -39.5525   62.3890   34.2026 C   0  0  0  0  0  0  0  0  0  0  0  0
  -38.4471   60.2431   33.4782 C   0  0  0  0  0  0  0  0  0  0  0  0
  -37.0046   62.3258   33.8944 H   0  0  0  0  0  0  0  0  0  0  0  0
  1  2  1  0  0  0
  1  5  1  0  0  0
  2  3  1  0  0  0
  2  4  1  0  0  0
M  END
> <minimizedAffinity>
-2.60201

$$$$
3776


  5  4  0  0  0  0  0  0  0  0999 V2000
  -37.4653   65.0335   30.4853 O   0  0  0  0  0  0  0  0  0  0  0  0
  -37.4352   64.2458   31.6716 C   0  0  0  0  0  0  0  0  0  0  0  0
  -38.7619   63.5175   31.8227 C   0  0  0  0  0  0  0  0  0  0  0  0
  -36.2628   63.2794   31.6013 C   0  0  0  0  0  0  0  0  0  0  0  0
  -37.5895   64.4332   29.7304 H   0  0  0  0  0  0  0  0  0  0  0  0
  1  2  1  0  0  0
  1  5  1  0  0  0
  2  3  1  0  0  0
  2  4  1  0  0  0
M  END
> <minimizedAffinity>
-2.60003

$$$$
3776


  5  4  0  0  0  0  0  0  0  0999 V2000
  -38.2856   62.9175   31.3325 O   0  0  0  0  0  0  0  0  0  0  0  0
  -37.3258   61.9991   31.8465 C   0  0  0  0  0  0  0  0  0  0  0  0
  -37.9861   61.1216   32.8989 C   0  0  0  0  0  0  0  0  0  0  0  0
  -36.7551   61.1778   30.7005 C   0  0  0  0  0  0  0  0  0  0  0  0
  -39.0004   62.4037   30.9194 H   0  0  0  0  0  0  0  0  0  0  0  0
  1  2  1  0  0  0
  1  5  1  0  0  0
  2  3  1  0  0  0
  2  4  1  0  0  0
M  END
> <minimizedAffinity>
-2.59738

$$$$
3776


  5  4  0  0  0  0  0  0  0  0999 V2000
  -44.0486   60.0677   33.2130 O   0  0  0  0  0  0  0  0  0  0  0  0
  -43.0836   60.9744   33.7380 C   0  0  0  0  0  0  0  0  0  0  0  0
  -43.6470   61.6383   34.9851 C   0  0  0  0  0  0  0  0  0  0  0  0
  -41.7952   60.2206   34.0300 C   0  0  0  0  0  0  0  0  0  0  0  0
  -44.2202   59.3892   33.8881 H   0  0  0  0  0  0  0  0  0  0  0  0
  1  2  1  0  0  0
  1  5  1  0  0  0
  2  3  1  0  0  0
  2  4  1  0  0  0
M  END
> <minimizedAffinity>
-2.58899

$$$$
3776


  5  4  0  0  0  0  0  0  0  0999 V2000
  -36.8552   62.2373   33.4280 O   0  0  0  0  0  0  0  0  0  0  0  0
  -37.4456   62.5148   32.1618 C   0  0  0  0  0  0  0  0  0  0  0  0
  -37.0962   63.9360   31.7472 C   0  0  0  0  0  0  0  0  0  0  0  0
  -36.9576   61.4922   31.1470 C   0  0  0  0  0  0  0  0  0  0  0  0
  -35.8906   62.3158   33.3323 H   0  0  0  0  0  0  0  0  0  0  0  0
  1  2  1  0  0  0
  1  5  1  0  0  0
  2  3  1  0  0  0
  2  4  1  0  0  0
M  END
> <minimizedAffinity>
-2.57025

$$$$
3776


  5  4  0  0  0  0  0  0  0  0999 V2000
  -37.2697   70.2312   27.0328 O   0  0  0  0  0  0  0  0  0  0  0  0
  -37.1633   70.1705   28.4519 C   0  0  0  0  0  0  0  0  0  0  0  0
  -37.6135   68.7983   28.9293 C   0  0  0  0  0  0  0  0  0  0  0  0
  -35.7289   70.4701   28.8597 C   0  0  0  0  0  0  0  0  0  0  0  0
  -36.6818   69.5526   26.6591 H   0  0  0  0  0  0  0  0  0  0  0  0
  1  2  1  0  0  0
  1  5  1  0  0  0
  2  3  1  0  0  0
  2  4  1  0  0  0
M  END
> <minimizedAffinity>
-2.54066

$$$$
3776


  5  4  0  0  0  0  0  0  0  0999 V2000
  -43.9694   60.0692   33.1712 O   0  0  0  0  0  0  0  0  0  0  0  0
  -43.6282   60.1116   34.5535 C   0  0  0  0  0  0  0  0  0  0  0  0
  -42.1156   60.0435   34.6981 C   0  0  0  0  0  0  0  0  0  0  0  0
  -44.2004   61.3781   35.1717 C   0  0  0  0  0  0  0  0  0  0  0  0
  -43.5706   60.8445   32.7405 H   0  0  0  0  0  0  0  0  0  0  0  0
  1  2  1  0  0  0
  1  5  1  0  0  0
  2  3  1  0  0  0
  2  4  1  0  0  0
M  END
> <minimizedAffinity>
-2.52936

$$$$
3776


  5  4  0  0  0  0  0  0  0  0999 V2000
  -42.6266   59.8427   36.0531 O   0  0  0  0  0  0  0  0  0  0  0  0
  -43.5080   60.0449   34.9526 C   0  0  0  0  0  0  0  0  0  0  0  0
  -43.8921   61.5150   34.8824 C   0  0  0  0  0  0  0  0  0  0  0  0
  -42.8297   59.5747   33.6749 C   0  0  0  0  0  0  0  0  0  0  0  0
  -41.8281   60.3760   35.8991 H   0  0  0  0  0  0  0  0  0  0  0  0
  1  2  1  0  0  0
  1  5  1  0  0  0
  2  3  1  0  0  0
  2  4  1  0  0  0
M  END
> <minimizedAffinity>
-2.52843

$$$$
3776


  5  4  0  0  0  0  0  0  0  0999 V2000
  -39.9381   60.3030   36.0678 O   0  0  0  0  0  0  0  0  0  0  0  0
  -41.2014   60.1153   35.4373 C   0  0  0  0  0  0  0  0  0  0  0  0
  -42.2430   60.9743   36.1378 C   0  0  0  0  0  0  0  0  0  0  0  0
  -41.0807   60.4618   33.9612 C   0  0  0  0  0  0  0  0  0  0  0  0
  -39.6946   61.2402   35.9774 H   0  0  0  0  0  0  0  0  0  0  0  0
  1  2  1  0  0  0
  1  5  1  0  0  0
  2  3  1  0  0  0
  2  4  1  0  0  0
M  END
> <minimizedAffinity>
-2.49327

$$$$
3776


  5  4  0  0  0  0  0  0  0  0999 V2000
  -37.1886   62.1171   34.5038 O   0  0  0  0  0  0  0  0  0  0  0  0
  -37.9268   61.8979   33.3055 C   0  0  0  0  0  0  0  0  0  0  0  0
  -38.2517   60.4172   33.1815 C   0  0  0  0  0  0  0  0  0  0  0  0
  -39.1838   62.7541   33.3281 C   0  0  0  0  0  0  0  0  0  0  0  0
  -37.7468   61.8472   35.2529 H   0  0  0  0  0  0  0  0  0  0  0  0
  1  2  1  0  0  0
  1  5  1  0  0  0
  2  3  1  0  0  0
  2  4  1  0  0  0
M  END
> <minimizedAffinity>
-2.46707

$$$$
3776


  5  4  0  0  0  0  0  0  0  0999 V2000
  -38.5323   63.0529   31.3491 O   0  0  0  0  0  0  0  0  0  0  0  0
  -37.2996   62.3472   31.4556 C   0  0  0  0  0  0  0  0  0  0  0  0
  -36.1842   63.3325   31.7697 C   0  0  0  0  0  0  0  0  0  0  0  0
  -37.4273   61.2752   32.5270 C   0  0  0  0  0  0  0  0  0  0  0  0
  -38.7100   63.4761   32.2064 H   0  0  0  0  0  0  0  0  0  0  0  0
  1  2  1  0  0  0
  1  5  1  0  0  0
  2  3  1  0  0  0
  2  4  1  0  0  0
M  END
> <minimizedAffinity>
-2.45960

$$$$
3776


  5  4  0  0  0  0  0  0  0  0999 V2000
  -41.6315   59.9425   36.0097 O   0  0  0  0  0  0  0  0  0  0  0  0
  -41.7884   60.4189   34.6766 C   0  0  0  0  0  0  0  0  0  0  0  0
  -40.4356   60.4153   33.9813 C   0  0  0  0  0  0  0  0  0  0  0  0
  -42.8017   59.5479   33.9497 C   0  0  0  0  0  0  0  0  0  0  0  0
  -41.2964   59.0307   35.9644 H   0  0  0  0  0  0  0  0  0  0  0  0
  1  2  1  0  0  0
  1  5  1  0  0  0
  2  3  1  0  0  0
  2  4  1  0  0  0
M  END
> <minimizedAffinity>
-2.45913

$$$$
3776


  5  4  0  0  0  0  0  0  0  0999 V2000
  -37.4398   65.3826   29.9313 O   0  0  0  0  0  0  0  0  0  0  0  0
  -38.2595   65.7645   31.0318 C   0  0  0  0  0  0  0  0  0  0  0  0
  -39.7093   65.8317   30.5766 C   0  0  0  0  0  0  0  0  0  0  0  0
  -38.0675   64.7712   32.1675 C   0  0  0  0  0  0  0  0  0  0  0  0
  -37.7250   64.5006   29.6374 H   0  0  0  0  0  0  0  0  0  0  0  0
  1  2  1  0  0  0
  1  5  1  0  0  0
  2  3  1  0  0  0
  2  4  1  0  0  0
M  END
> <minimizedAffinity>
-2.44434

$$$$
3776


  5  4  0  0  0  0  0  0  0  0999 V2000
  -37.7183   66.0059   29.2642 O   0  0  0  0  0  0  0  0  0  0  0  0
  -38.7478   66.1530   30.2375 C   0  0  0  0  0  0  0  0  0  0  0  0
  -38.2594   65.6049   31.5696 C   0  0  0  0  0  0  0  0  0  0  0  0
  -39.1370   67.6201   30.3367 C   0  0  0  0  0  0  0  0  0  0  0  0
  -36.9495   66.5221   29.5612 H   0  0  0  0  0  0  0  0  0  0  0  0
  1  2  1  0  0  0
  1  5  1  0  0  0
  2  3  1  0  0  0
  2  4  1  0  0  0
M  END
> <minimizedAffinity>
-2.43645

$$$$
3776


  5  4  0  0  0  0  0  0  0  0999 V2000
  -36.4651   63.0460   32.6162 O   0  0  0  0  0  0  0  0  0  0  0  0
  -37.4018   61.9734   32.6454 C   0  0  0  0  0  0  0  0  0  0  0  0
  -37.0372   61.0209   33.7738 C   0  0  0  0  0  0  0  0  0  0  0  0
  -38.8044   62.5380   32.8111 C   0  0  0  0  0  0  0  0  0  0  0  0
  -36.5228   63.5171   33.4649 H   0  0  0  0  0  0  0  0  0  0  0  0
  1  2  1  0  0  0
  1  5  1  0  0  0
  2  3  1  0  0  0
  2  4  1  0  0  0
M  END
> <minimizedAffinity>
-2.41300

$$$$
3776


  5  4  0  0  0  0  0  0  0  0999 V2000
  -34.0082   68.7065   38.8354 O   0  0  0  0  0  0  0  0  0  0  0  0
  -34.4331   67.5825   39.6002 C   0  0  0  0  0  0  0  0  0  0  0  0
  -34.2602   67.8896   41.0798 C   0  0  0  0  0  0  0  0  0  0  0  0
  -35.8783   67.2585   39.2537 C   0  0  0  0  0  0  0  0  0  0  0  0
  -34.5723   69.4617   39.0744 H   0  0  0  0  0  0  0  0  0  0  0  0
  1  2  1  0  0  0
  1  5  1  0  0  0
  2  3  1  0  0  0
  2  4  1  0  0  0
M  END
> <minimizedAffinity>
-2.40957

$$$$
3776


  5  4  0  0  0  0  0  0  0  0999 V2000
  -41.3449   60.0584   35.4683 O   0  0  0  0  0  0  0  0  0  0  0  0
  -41.5856   60.2586   34.0788 C   0  0  0  0  0  0  0  0  0  0  0  0
  -42.8950   59.5863   33.6956 C   0  0  0  0  0  0  0  0  0  0  0  0
  -41.6072   61.7508   33.7843 C   0  0  0  0  0  0  0  0  0  0  0  0
  -42.0742   60.4719   35.9611 H   0  0  0  0  0  0  0  0  0  0  0  0
  1  2  1  0  0  0
  1  5  1  0  0  0
  2  3  1  0  0  0
  2  4  1  0  0  0
M  END
> <minimizedAffinity>
-2.39437

$$$$
3776


  5  4  0  0  0  0  0  0  0  0999 V2000
  -36.7852   64.1503   30.6838 O   0  0  0  0  0  0  0  0  0  0  0  0
  -37.8140   64.6856   31.5107 C   0  0  0  0  0  0  0  0  0  0  0  0
  -38.4513   65.8756   30.8099 C   0  0  0  0  0  0  0  0  0  0  0  0
  -38.8305   63.5954   31.8140 C   0  0  0  0  0  0  0  0  0  0  0  0
  -37.1934   63.8526   29.8529 H   0  0  0  0  0  0  0  0  0  0  0  0
  1  2  1  0  0  0
  1  5  1  0  0  0
  2  3  1  0  0  0
  2  4  1  0  0  0
M  END
> <minimizedAffinity>
-2.37527

$$$$
3776


  5  4  0  0  0  0  0  0  0  0999 V2000
  -37.6465   66.5275   29.6544 O   0  0  0  0  0  0  0  0  0  0  0  0
  -38.2978   67.7711   29.4136 C   0  0  0  0  0  0  0  0  0  0  0  0
  -39.4319   67.9440   30.4124 C   0  0  0  0  0  0  0  0  0  0  0  0
  -37.2795   68.8968   29.5119 C   0  0  0  0  0  0  0  0  0  0  0  0
  -37.2803   66.5507   30.5550 H   0  0  0  0  0  0  0  0  0  0  0  0
  1  2  1  0  0  0
  1  5  1  0  0  0
  2  3  1  0  0  0
  2  4  1  0  0  0
M  END
> <minimizedAffinity>
-2.35257

$$$$
3776


  5  4  0  0  0  0  0  0  0  0999 V2000
  -38.5570   65.8520   29.8234 O   0  0  0  0  0  0  0  0  0  0  0  0
  -38.4916   67.1877   30.3134 C   0  0  0  0  0  0  0  0  0  0  0  0
  -37.8893   68.0848   29.2429 C   0  0  0  0  0  0  0  0  0  0  0  0
  -39.8864   67.6425   30.7151 C   0  0  0  0  0  0  0  0  0  0  0  0
  -39.1333   65.8483   29.0401 H   0  0  0  0  0  0  0  0  0  0  0  0
  1  2  1  0  0  0
  1  5  1  0  0  0
  2  3  1  0  0  0
  2  4  1  0  0  0
M  END
> <minimizedAffinity>
-2.34926

$$$$
3776


  5  4  0  0  0  0  0  0  0  0999 V2000
  -37.3032   68.9827   28.3314 O   0  0  0  0  0  0  0  0  0  0  0  0
  -37.9152   68.3691   29.4618 C   0  0  0  0  0  0  0  0  0  0  0  0
  -39.2698   69.0149   29.7096 C   0  0  0  0  0  0  0  0  0  0  0  0
  -38.0371   66.8733   29.2147 C   0  0  0  0  0  0  0  0  0  0  0  0
  -37.8769   68.8308   27.5610 H   0  0  0  0  0  0  0  0  0  0  0  0
  1  2  1  0  0  0
  1  5  1  0  0  0
  2  3  1  0  0  0
  2  4  1  0  0  0
M  END
> <minimizedAffinity>
-2.33816

$$$$
3776


  5  4  0  0  0  0  0  0  0  0999 V2000
  -41.7777   61.7935   33.8158 O   0  0  0  0  0  0  0  0  0  0  0  0
  -41.5038   60.3986   33.9053 C   0  0  0  0  0  0  0  0  0  0  0  0
  -40.8457   60.1025   35.2442 C   0  0  0  0  0  0  0  0  0  0  0  0
  -42.7991   59.6215   33.7262 C   0  0  0  0  0  0  0  0  0  0  0  0
  -42.3920   62.0246   34.5333 H   0  0  0  0  0  0  0  0  0  0  0  0
  1  2  1  0  0  0
  1  5  1  0  0  0
  2  3  1  0  0  0
  2  4  1  0  0  0
M  END
> <minimizedAffinity>
-2.32947

$$$$
3776


  5  4  0  0  0  0  0  0  0  0999 V2000
  -35.6038   70.5535   27.9523 O   0  0  0  0  0  0  0  0  0  0  0  0
  -36.9378   70.5233   28.4507 C   0  0  0  0  0  0  0  0  0  0  0  0
  -37.9054   70.7894   27.3077 C   0  0  0  0  0  0  0  0  0  0  0  0
  -37.1956   69.1769   29.1098 C   0  0  0  0  0  0  0  0  0  0  0  0
  -35.5166   69.8492   27.2874 H   0  0  0  0  0  0  0  0  0  0  0  0
  1  2  1  0  0  0
  1  5  1  0  0  0
  2  3  1  0  0  0
  2  4  1  0  0  0
M  END
> <minimizedAffinity>
-2.31690

$$$$
3776


  5  4  0  0  0  0  0  0  0  0999 V2000
  -38.2658   66.1770   32.0431 O   0  0  0  0  0  0  0  0  0  0  0  0
  -39.0536   66.0517   30.8630 C   0  0  0  0  0  0  0  0  0  0  0  0
  -40.3425   66.8406   31.0356 C   0  0  0  0  0  0  0  0  0  0  0  0
  -38.2470   66.5379   29.6686 C   0  0  0  0  0  0  0  0  0  0  0  0
  -38.0524   67.1182   32.1621 H   0  0  0  0  0  0  0  0  0  0  0  0
  1  2  1  0  0  0
  1  5  1  0  0  0
  2  3  1  0  0  0
  2  4  1  0  0  0
M  END
> <minimizedAffinity>
-2.30838

$$$$
3776


  5  4  0  0  0  0  0  0  0  0999 V2000
  -38.9077   62.1896   34.8609 O   0  0  0  0  0  0  0  0  0  0  0  0
  -38.8305   60.7750   34.7129 C   0  0  0  0  0  0  0  0  0  0  0  0
  -40.1622   60.1567   35.1101 C   0  0  0  0  0  0  0  0  0  0  0  0
  -38.4565   60.4415   33.2768 C   0  0  0  0  0  0  0  0  0  0  0  0
  -39.6034   62.5154   34.2646 H   0  0  0  0  0  0  0  0  0  0  0  0
  1  2  1  0  0  0
  1  5  1  0  0  0
  2  3  1  0  0  0
  2  4  1  0  0  0
M  END
> <minimizedAffinity>
-2.29532

$$$$
3776


  5  4  0  0  0  0  0  0  0  0999 V2000
  -37.6470   64.9198   32.5468 O   0  0  0  0  0  0  0  0  0  0  0  0
  -38.3403   64.7101   31.3204 C   0  0  0  0  0  0  0  0  0  0  0  0
  -39.6549   63.9993   31.6037 C   0  0  0  0  0  0  0  0  0  0  0  0
  -38.5570   66.0493   30.6325 C   0  0  0  0  0  0  0  0  0  0  0  0
  -38.2019   65.4843   33.1118 H   0  0  0  0  0  0  0  0  0  0  0  0
  1  2  1  0  0  0
  1  5  1  0  0  0
  2  3  1  0  0  0
  2  4  1  0  0  0
M  END
> <minimizedAffinity>
-2.27346

$$$$
3776


  5  4  0  0  0  0  0  0  0  0999 V2000
  -32.1477   70.4957   30.8781 O   0  0  0  0  0  0  0  0  0  0  0  0
  -32.9404   71.4662   30.2010 C   0  0  0  0  0  0  0  0  0  0  0  0
  -34.4075   71.2284   30.5246 C   0  0  0  0  0  0  0  0  0  0  0  0
  -32.4875   72.8585   30.6132 C   0  0  0  0  0  0  0  0  0  0  0  0
  -32.2879   70.6086   31.8338 H   0  0  0  0  0  0  0  0  0  0  0  0
  1  2  1  0  0  0
  1  5  1  0  0  0
  2  3  1  0  0  0
  2  4  1  0  0  0
M  END
> <minimizedAffinity>
-2.23146

$$$$
3776


  5  4  0  0  0  0  0  0  0  0999 V2000
  -34.8423   70.4424   30.8402 O   0  0  0  0  0  0  0  0  0  0  0  0
  -36.2265   70.6413   30.5692 C   0  0  0  0  0  0  0  0  0  0  0  0
  -36.4773   72.1177   30.3031 C   0  0  0  0  0  0  0  0  0  0  0  0
  -36.6347   69.7750   29.3874 C   0  0  0  0  0  0  0  0  0  0  0  0
  -34.3408   70.7164   30.0534 H   0  0  0  0  0  0  0  0  0  0  0  0
  1  2  1  0  0  0
  1  5  1  0  0  0
  2  3  1  0  0  0
  2  4  1  0  0  0
M  END
> <minimizedAffinity>
-2.22275

$$$$
3776


  5  4  0  0  0  0  0  0  0  0999 V2000
  -38.1879   62.8809   31.2216 O   0  0  0  0  0  0  0  0  0  0  0  0
  -38.8889   63.8617   31.9802 C   0  0  0  0  0  0  0  0  0  0  0  0
  -38.1155   65.1708   31.9423 C   0  0  0  0  0  0  0  0  0  0  0  0
  -40.2945   64.0174   31.4200 C   0  0  0  0  0  0  0  0  0  0  0  0
  -38.1339   63.1952   30.3030 H   0  0  0  0  0  0  0  0  0  0  0  0
  1  2  1  0  0  0
  1  5  1  0  0  0
  2  3  1  0  0  0
  2  4  1  0  0  0
M  END
> <minimizedAffinity>
-2.19886

$$$$
3776


  5  4  0  0  0  0  0  0  0  0999 V2000
  -34.9059   70.8409   27.3786 O   0  0  0  0  0  0  0  0  0  0  0  0
  -33.5794   71.3592   27.4039 C   0  0  0  0  0  0  0  0  0  0  0  0
  -32.9351   71.0207   28.7395 C   0  0  0  0  0  0  0  0  0  0  0  0
  -32.7950   70.7844   26.2343 C   0  0  0  0  0  0  0  0  0  0  0  0
  -34.8517   69.8746   27.4730 H   0  0  0  0  0  0  0  0  0  0  0  0
  1  2  1  0  0  0
  1  5  1  0  0  0
  2  3  1  0  0  0
  2  4  1  0  0  0
M  END
> <minimizedAffinity>
-2.16987

$$$$
3776


  5  4  0  0  0  0  0  0  0  0999 V2000
  -37.8232   62.5653   31.1159 O   0  0  0  0  0  0  0  0  0  0  0  0
  -38.7519   63.4158   31.7816 C   0  0  0  0  0  0  0  0  0  0  0  0
  -39.3145   62.6905   32.9944 C   0  0  0  0  0  0  0  0  0  0  0  0
  -38.0556   64.7116   32.1686 C   0  0  0  0  0  0  0  0  0  0  0  0
  -37.1003   62.3681   31.7357 H   0  0  0  0  0  0  0  0  0  0  0  0
  1  2  1  0  0  0
  1  5  1  0  0  0
  2  3  1  0  0  0
  2  4  1  0  0  0
M  END
> <minimizedAffinity>
-2.16325

$$$$
3776


  5  4  0  0  0  0  0  0  0  0999 V2000
  -39.1360   65.6648   30.0131 O   0  0  0  0  0  0  0  0  0  0  0  0
  -39.8147   66.4051   31.0231 C   0  0  0  0  0  0  0  0  0  0  0  0
  -39.8897   67.8664   30.6076 C   0  0  0  0  0  0  0  0  0  0  0  0
  -41.1958   65.8060   31.2402 C   0  0  0  0  0  0  0  0  0  0  0  0
  -39.6503   65.7386   29.1911 H   0  0  0  0  0  0  0  0  0  0  0  0
  1  2  1  0  0  0
  1  5  1  0  0  0
  2  3  1  0  0  0
  2  4  1  0  0  0
M  END
> <minimizedAffinity>
-2.13407

$$$$
3776


  5  4  0  0  0  0  0  0  0  0999 V2000
  -34.6901   70.5123   30.8134 O   0  0  0  0  0  0  0  0  0  0  0  0
  -34.4924   71.8839   30.4840 C   0  0  0  0  0  0  0  0  0  0  0  0
  -35.5958   72.7156   31.1198 C   0  0  0  0  0  0  0  0  0  0  0  0
  -33.1127   72.3180   30.9547 C   0  0  0  0  0  0  0  0  0  0  0  0
  -34.6398   70.4265   31.7808 H   0  0  0  0  0  0  0  0  0  0  0  0
  1  2  1  0  0  0
  1  5  1  0  0  0
  2  3  1  0  0  0
  2  4  1  0  0  0
M  END
> <minimizedAffinity>
-2.13358

$$$$
3776


  5  4  0  0  0  0  0  0  0  0999 V2000
  -38.6850   63.8900   31.2395 O   0  0  0  0  0  0  0  0  0  0  0  0
  -39.8865   64.2415   31.9189 C   0  0  0  0  0  0  0  0  0  0  0  0
  -40.9667   64.5560   30.8953 C   0  0  0  0  0  0  0  0  0  0  0  0
  -40.2929   63.1010   32.8396 C   0  0  0  0  0  0  0  0  0  0  0  0
  -38.8633   63.0961   30.7070 H   0  0  0  0  0  0  0  0  0  0  0  0
  1  2  1  0  0  0
  1  5  1  0  0  0
  2  3  1  0  0  0
  2  4  1  0  0  0
M  END
> <minimizedAffinity>
-2.13246

$$$$
3776


  5  4  0  0  0  0  0  0  0  0999 V2000
  -39.0756   69.7223   29.2099 O   0  0  0  0  0  0  0  0  0  0  0  0
  -37.9556   68.9325   28.8217 C   0  0  0  0  0  0  0  0  0  0  0  0
  -36.6747   69.6576   29.2050 C   0  0  0  0  0  0  0  0  0  0  0  0
  -38.0532   67.5663   29.4833 C   0  0  0  0  0  0  0  0  0  0  0  0
  -39.0450   69.8309   30.1758 H   0  0  0  0  0  0  0  0  0  0  0  0
  1  2  1  0  0  0
  1  5  1  0  0  0
  2  3  1  0  0  0
  2  4  1  0  0  0
M  END
> <minimizedAffinity>
-2.08997

$$$$
3776


  5  4  0  0  0  0  0  0  0  0999 V2000
  -32.2402   68.1773   42.2485 O   0  0  0  0  0  0  0  0  0  0  0  0
  -33.4782   68.2964   41.5542 C   0  0  0  0  0  0  0  0  0  0  0  0
  -34.6027   67.7927   42.4460 C   0  0  0  0  0  0  0  0  0  0  0  0
  -33.6854   69.7467   41.1453 C   0  0  0  0  0  0  0  0  0  0  0  0
  -32.2898   68.7313   43.0462 H   0  0  0  0  0  0  0  0  0  0  0  0
  1  2  1  0  0  0
  1  5  1  0  0  0
  2  3  1  0  0  0
  2  4  1  0  0  0
M  END
> <minimizedAffinity>
-2.08649

$$$$
3776


  5  4  0  0  0  0  0  0  0  0999 V2000
  -33.0163   70.6043   29.3875 O   0  0  0  0  0  0  0  0  0  0  0  0
  -32.2173   70.8964   28.2452 C   0  0  0  0  0  0  0  0  0  0  0  0
  -31.0663   69.9046   28.1724 C   0  0  0  0  0  0  0  0  0  0  0  0
  -33.0881   70.8464   26.9991 C   0  0  0  0  0  0  0  0  0  0  0  0
  -33.3731   69.7058   29.2816 H   0  0  0  0  0  0  0  0  0  0  0  0
  1  2  1  0  0  0
  1  5  1  0  0  0
  2  3  1  0  0  0
  2  4  1  0  0  0
M  END
> <minimizedAffinity>
-2.05297

$$$$
3776


  5  4  0  0  0  0  0  0  0  0999 V2000
  -40.7926   71.6589   29.0534 O   0  0  0  0  0  0  0  0  0  0  0  0
  -39.6731   70.8687   28.6645 C   0  0  0  0  0  0  0  0  0  0  0  0
  -38.4042   71.6958   28.8033 C   0  0  0  0  0  0  0  0  0  0  0  0
  -39.6266   69.6115   29.5194 C   0  0  0  0  0  0  0  0  0  0  0  0
  -40.6731   71.9093   29.9854 H   0  0  0  0  0  0  0  0  0  0  0  0
  1  2  1  0  0  0
  1  5  1  0  0  0
  2  3  1  0  0  0
  2  4  1  0  0  0
M  END
> <minimizedAffinity>
-2.04750

$$$$
3776


  5  4  0  0  0  0  0  0  0  0999 V2000
  -42.0606   59.8838   33.6300 O   0  0  0  0  0  0  0  0  0  0  0  0
  -41.2457   60.7514   34.4124 C   0  0  0  0  0  0  0  0  0  0  0  0
  -40.0162   59.9913   34.8859 C   0  0  0  0  0  0  0  0  0  0  0  0
  -40.8736   61.9713   33.5836 C   0  0  0  0  0  0  0  0  0  0  0  0
  -41.5414   59.6006   32.8581 H   0  0  0  0  0  0  0  0  0  0  0  0
  1  2  1  0  0  0
  1  5  1  0  0  0
  2  3  1  0  0  0
  2  4  1  0  0  0
M  END
> <minimizedAffinity>
-2.03306

$$$$
3776


  5  4  0  0  0  0  0  0  0  0999 V2000
  -33.5423   68.6462   40.4152 O   0  0  0  0  0  0  0  0  0  0  0  0
  -34.6560   67.9458   40.9609 C   0  0  0  0  0  0  0  0  0  0  0  0
  -35.1975   66.9778   39.9201 C   0  0  0  0  0  0  0  0  0  0  0  0
  -34.2232   67.2289   42.2307 C   0  0  0  0  0  0  0  0  0  0  0  0
  -32.8558   67.9931   40.1965 H   0  0  0  0  0  0  0  0  0  0  0  0
  1  2  1  0  0  0
  1  5  1  0  0  0
  2  3  1  0  0  0
  2  4  1  0  0  0
M  END
> <minimizedAffinity>
-2.01592

$$$$
3776


  5  4  0  0  0  0  0  0  0  0999 V2000
  -39.1380   64.5940   32.6071 O   0  0  0  0  0  0  0  0  0  0  0  0
  -40.0881   63.7920   31.9122 C   0  0  0  0  0  0  0  0  0  0  0  0
  -40.9510   63.0504   32.9218 C   0  0  0  0  0  0  0  0  0  0  0  0
  -40.9201   64.6796   30.9992 C   0  0  0  0  0  0  0  0  0  0  0  0
  -39.6275   65.2388   33.1459 H   0  0  0  0  0  0  0  0  0  0  0  0
  1  2  1  0  0  0
  1  5  1  0  0  0
  2  3  1  0  0  0
  2  4  1  0  0  0
M  END
> <minimizedAffinity>
-2.00727

$$$$
3776


  5  4  0  0  0  0  0  0  0  0999 V2000
  -32.0695   67.9442   42.3150 O   0  0  0  0  0  0  0  0  0  0  0  0
  -32.9430   67.3516   43.2714 C   0  0  0  0  0  0  0  0  0  0  0  0
  -32.7620   68.0459   44.6125 C   0  0  0  0  0  0  0  0  0  0  0  0
  -34.3757   67.4512   42.7703 C   0  0  0  0  0  0  0  0  0  0  0  0
  -32.3138   68.8814   42.2267 H   0  0  0  0  0  0  0  0  0  0  0  0
  1  2  1  0  0  0
  1  5  1  0  0  0
  2  3  1  0  0  0
  2  4  1  0  0  0
M  END
> <minimizedAffinity>
-2.00220

$$$$
3776


  5  4  0  0  0  0  0  0  0  0999 V2000
  -34.4148   70.8658   28.7659 O   0  0  0  0  0  0  0  0  0  0  0  0
  -34.4755   71.3776   27.4380 C   0  0  0  0  0  0  0  0  0  0  0  0
  -34.7699   72.8690   27.4893 C   0  0  0  0  0  0  0  0  0  0  0  0
  -33.1633   71.0830   26.7274 C   0  0  0  0  0  0  0  0  0  0  0  0
  -33.6904   71.3202   29.2290 H   0  0  0  0  0  0  0  0  0  0  0  0
  1  2  1  0  0  0
  1  5  1  0  0  0
  2  3  1  0  0  0
  2  4  1  0  0  0
M  END
> <minimizedAffinity>
-1.98620

$$$$
3776


  5  4  0  0  0  0  0  0  0  0999 V2000
  -38.6112   63.0523   34.1002 O   0  0  0  0  0  0  0  0  0  0  0  0
  -39.3421   62.6286   32.9535 C   0  0  0  0  0  0  0  0  0  0  0  0
  -40.8313   62.6960   33.2560 C   0  0  0  0  0  0  0  0  0  0  0  0
  -38.9645   63.5034   31.7678 C   0  0  0  0  0  0  0  0  0  0  0  0
  -38.8588   63.9734   34.2897 H   0  0  0  0  0  0  0  0  0  0  0  0
  1  2  1  0  0  0
  1  5  1  0  0  0
  2  3  1  0  0  0
  2  4  1  0  0  0
M  END
> <minimizedAffinity>
-1.98346

$$$$
3776


  5  4  0  0  0  0  0  0  0  0999 V2000
  -41.0451   64.0401   30.9568 O   0  0  0  0  0  0  0  0  0  0  0  0
  -40.3097   63.8743   32.1653 C   0  0  0  0  0  0  0  0  0  0  0  0
  -41.0272   62.8699   33.0542 C   0  0  0  0  0  0  0  0  0  0  0  0
  -38.8944   63.4273   31.8328 C   0  0  0  0  0  0  0  0  0  0  0  0
  -41.0785   63.1790   30.5061 H   0  0  0  0  0  0  0  0  0  0  0  0
  1  2  1  0  0  0
  1  5  1  0  0  0
  2  3  1  0  0  0
  2  4  1  0  0  0
M  END
> <minimizedAffinity>
-1.98043

$$$$
3776


  5  4  0  0  0  0  0  0  0  0999 V2000
  -46.6923   60.5185   35.5624 O   0  0  0  0  0  0  0  0  0  0  0  0
  -47.9223   60.6193   36.2736 C   0  0  0  0  0  0  0  0  0  0  0  0
  -48.6915   61.8327   35.7739 C   0  0  0  0  0  0  0  0  0  0  0  0
  -48.7128   59.3327   36.0916 C   0  0  0  0  0  0  0  0  0  0  0  0
  -46.9003   60.4007   34.6198 H   0  0  0  0  0  0  0  0  0  0  0  0
  1  2  1  0  0  0
  1  5  1  0  0  0
  2  3  1  0  0  0
  2  4  1  0  0  0
M  END
> <minimizedAffinity>
-1.97610

$$$$
3776


  5  4  0  0  0  0  0  0  0  0999 V2000
  -38.3776   66.2125   32.2630 O   0  0  0  0  0  0  0  0  0  0  0  0
  -39.4776   67.1100   32.3783 C   0  0  0  0  0  0  0  0  0  0  0  0
  -38.9676   68.5404   32.2932 C   0  0  0  0  0  0  0  0  0  0  0  0
  -40.4905   66.8034   31.2857 C   0  0  0  0  0  0  0  0  0  0  0  0
  -37.9648   66.3549   31.3941 H   0  0  0  0  0  0  0  0  0  0  0  0
  1  2  1  0  0  0
  1  5  1  0  0  0
  2  3  1  0  0  0
  2  4  1  0  0  0
M  END
> <minimizedAffinity>
-1.97177

$$$$
3776


  5  4  0  0  0  0  0  0  0  0999 V2000
  -39.7940   66.3045   31.5141 O   0  0  0  0  0  0  0  0  0  0  0  0
  -38.4117   66.2467   31.1754 C   0  0  0  0  0  0  0  0  0  0  0  0
  -37.8649   64.8740   31.5364 C   0  0  0  0  0  0  0  0  0  0  0  0
  -38.2460   66.5513   29.6944 C   0  0  0  0  0  0  0  0  0  0  0  0
  -40.2585   65.6271   30.9935 H   0  0  0  0  0  0  0  0  0  0  0  0
  1  2  1  0  0  0
  1  5  1  0  0  0
  2  3  1  0  0  0
  2  4  1  0  0  0
M  END
> <minimizedAffinity>
-1.96736

$$$$
3776


  5  4  0  0  0  0  0  0  0  0999 V2000
  -40.6177   61.9097   36.1177 O   0  0  0  0  0  0  0  0  0  0  0  0
  -39.9429   61.4301   34.9586 C   0  0  0  0  0  0  0  0  0  0  0  0
  -38.5311   61.9954   34.9315 C   0  0  0  0  0  0  0  0  0  0  0  0
  -39.9444   59.9091   34.9719 C   0  0  0  0  0  0  0  0  0  0  0  0
  -40.1313   61.5956   36.8989 H   0  0  0  0  0  0  0  0  0  0  0  0
  1  2  1  0  0  0
  1  5  1  0  0  0
  2  3  1  0  0  0
  2  4  1  0  0  0
M  END
> <minimizedAffinity>
-1.96680

$$$$
3776


  5  4  0  0  0  0  0  0  0  0999 V2000
  -37.7782   72.4339   27.4922 O   0  0  0  0  0  0  0  0  0  0  0  0
  -36.5336   71.7451   27.4196 C   0  0  0  0  0  0  0  0  0  0  0  0
  -35.4009   72.7310   27.6619 C   0  0  0  0  0  0  0  0  0  0  0  0
  -36.5275   70.6137   28.4363 C   0  0  0  0  0  0  0  0  0  0  0  0
  -37.8626   72.8062   28.3866 H   0  0  0  0  0  0  0  0  0  0  0  0
  1  2  1  0  0  0
  1  5  1  0  0  0
  2  3  1  0  0  0
  2  4  1  0  0  0
M  END
> <minimizedAffinity>
-1.96623

$$$$
3776


  5  4  0  0  0  0  0  0  0  0999 V2000
  -40.0940   63.8792   31.3321 O   0  0  0  0  0  0  0  0  0  0  0  0
  -38.8278   63.4273   31.8027 C   0  0  0  0  0  0  0  0  0  0  0  0
  -37.9396   64.6298   32.0828 C   0  0  0  0  0  0  0  0  0  0  0  0
  -39.0313   62.5716   33.0437 C   0  0  0  0  0  0  0  0  0  0  0  0
  -40.4978   64.4204   32.0319 H   0  0  0  0  0  0  0  0  0  0  0  0
  1  2  1  0  0  0
  1  5  1  0  0  0
  2  3  1  0  0  0
  2  4  1  0  0  0
M  END
> <minimizedAffinity>
-1.90414

$$$$
3776


  5  4  0  0  0  0  0  0  0  0999 V2000
  -46.6345   57.9350   39.9261 O   0  0  0  0  0  0  0  0  0  0  0  0
  -47.5882   58.8115   39.3337 C   0  0  0  0  0  0  0  0  0  0  0  0
  -46.8601   59.8484   38.4920 C   0  0  0  0  0  0  0  0  0  0  0  0
  -48.5700   57.9970   38.5054 C   0  0  0  0  0  0  0  0  0  0  0  0
  -46.1542   57.4866   39.2093 H   0  0  0  0  0  0  0  0  0  0  0  0
  1  2  1  0  0  0
  1  5  1  0  0  0
  2  3  1  0  0  0
  2  4  1  0  0  0
M  END
> <minimizedAffinity>
-1.90229

$$$$
3776


  5  4  0  0  0  0  0  0  0  0999 V2000
  -41.5324   62.6148   33.0147 O   0  0  0  0  0  0  0  0  0  0  0  0
  -42.0327   61.8710   34.1216 C   0  0  0  0  0  0  0  0  0  0  0  0
  -42.4776   62.8340   35.2117 C   0  0  0  0  0  0  0  0  0  0  0  0
  -43.1728   60.9804   33.6521 C   0  0  0  0  0  0  0  0  0  0  0  0
  -42.2550   63.1708   32.6764 H   0  0  0  0  0  0  0  0  0  0  0  0
  1  2  1  0  0  0
  1  5  1  0  0  0
  2  3  1  0  0  0
  2  4  1  0  0  0
M  END
> <minimizedAffinity>
-1.89372

$$$$
3776


  5  4  0  0  0  0  0  0  0  0999 V2000
  -46.6532   58.1391   39.7069 O   0  0  0  0  0  0  0  0  0  0  0  0
  -48.0524   57.8731   39.7150 C   0  0  0  0  0  0  0  0  0  0  0  0
  -48.6044   58.0531   38.3091 C   0  0  0  0  0  0  0  0  0  0  0  0
  -48.2916   56.4664   40.2420 C   0  0  0  0  0  0  0  0  0  0  0  0
  -46.2298   57.4974   39.1114 H   0  0  0  0  0  0  0  0  0  0  0  0
  1  2  1  0  0  0
  1  5  1  0  0  0
  2  3  1  0  0  0
  2  4  1  0  0  0
M  END
> <minimizedAffinity>
-1.88689

$$$$
3776


  5  4  0  0  0  0  0  0  0  0999 V2000
  -35.4068   73.2125   31.6065 O   0  0  0  0  0  0  0  0  0  0  0  0
  -35.9356   72.4333   30.5379 C   0  0  0  0  0  0  0  0  0  0  0  0
  -35.5943   70.9692   30.7694 C   0  0  0  0  0  0  0  0  0  0  0  0
  -37.4373   72.6581   30.4498 C   0  0  0  0  0  0  0  0  0  0  0  0
  -35.8248   72.9121   32.4315 H   0  0  0  0  0  0  0  0  0  0  0  0
  1  2  1  0  0  0
  1  5  1  0  0  0
  2  3  1  0  0  0
  2  4  1  0  0  0
M  END
> <minimizedAffinity>
-1.88474

$$$$
3776


  5  4  0  0  0  0  0  0  0  0999 V2000
  -32.6731   73.8388   30.4200 O   0  0  0  0  0  0  0  0  0  0  0  0
  -32.4438   72.6666   29.6440 C   0  0  0  0  0  0  0  0  0  0  0  0
  -30.9795   72.6149   29.2359 C   0  0  0  0  0  0  0  0  0  0  0  0
  -32.8506   71.4438   30.4519 C   0  0  0  0  0  0  0  0  0  0  0  0
  -32.1195   73.7828   31.2176 H   0  0  0  0  0  0  0  0  0  0  0  0
  1  2  1  0  0  0
  1  5  1  0  0  0
  2  3  1  0  0  0
  2  4  1  0  0  0
M  END
> <minimizedAffinity>
-1.88382

$$$$
3776


  5  4  0  0  0  0  0  0  0  0999 V2000
  -47.1326   60.4452   35.5504 O   0  0  0  0  0  0  0  0  0  0  0  0
  -46.0729   61.1892   36.1439 C   0  0  0  0  0  0  0  0  0  0  0  0
  -45.9369   60.7883   37.6048 C   0  0  0  0  0  0  0  0  0  0  0  0
  -44.7897   60.9403   35.3660 C   0  0  0  0  0  0  0  0  0  0  0  0
  -46.9029   59.5018   35.6042 H   0  0  0  0  0  0  0  0  0  0  0  0
  1  2  1  0  0  0
  1  5  1  0  0  0
  2  3  1  0  0  0
  2  4  1  0  0  0
M  END
> <minimizedAffinity>
-1.87065

$$$$
3776


  5  4  0  0  0  0  0  0  0  0999 V2000
  -40.0549   63.0614   32.7184 O   0  0  0  0  0  0  0  0  0  0  0  0
  -41.2327   62.5722   33.3527 C   0  0  0  0  0  0  0  0  0  0  0  0
  -40.9825   61.1566   33.8496 C   0  0  0  0  0  0  0  0  0  0  0  0
  -41.6177   63.5110   34.4859 C   0  0  0  0  0  0  0  0  0  0  0  0
  -39.3421   63.0747   33.3798 H   0  0  0  0  0  0  0  0  0  0  0  0
  1  2  1  0  0  0
  1  5  1  0  0  0
  2  3  1  0  0  0
  2  4  1  0  0  0
M  END
> <minimizedAffinity>
-1.86972

$$$$
3776


  5  4  0  0  0  0  0  0  0  0999 V2000
  -34.7539   73.2804   28.3890 O   0  0  0  0  0  0  0  0  0  0  0  0
  -35.2756   72.2215   27.5919 C   0  0  0  0  0  0  0  0  0  0  0  0
  -35.0125   70.8947   28.2876 C   0  0  0  0  0  0  0  0  0  0  0  0
  -36.7605   72.4548   27.3592 C   0  0  0  0  0  0  0  0  0  0  0  0
  -35.2181   73.2685   29.2435 H   0  0  0  0  0  0  0  0  0  0  0  0
  1  2  1  0  0  0
  1  5  1  0  0  0
  2  3  1  0  0  0
  2  4  1  0  0  0
M  END
> <minimizedAffinity>
-1.86230

$$$$
3776


  5  4  0  0  0  0  0  0  0  0999 V2000
  -41.4208   61.8940   37.2175 O   0  0  0  0  0  0  0  0  0  0  0  0
  -41.6787   61.0422   36.1054 C   0  0  0  0  0  0  0  0  0  0  0  0
  -42.4370   61.8225   35.0426 C   0  0  0  0  0  0  0  0  0  0  0  0
  -40.3611   60.4970   35.5762 C   0  0  0  0  0  0  0  0  0  0  0  0
  -40.8696   62.6327   36.9074 H   0  0  0  0  0  0  0  0  0  0  0  0
  1  2  1  0  0  0
  1  5  1  0  0  0
  2  3  1  0  0  0
  2  4  1  0  0  0
M  END
> <minimizedAffinity>
-1.85574

$$$$
3776


  5  4  0  0  0  0  0  0  0  0999 V2000
  -32.7588   73.5871   30.5780 O   0  0  0  0  0  0  0  0  0  0  0  0
  -33.9911   73.6468   29.8662 C   0  0  0  0  0  0  0  0  0  0  0  0
  -33.7676   73.1743   28.4378 C   0  0  0  0  0  0  0  0  0  0  0  0
  -35.0276   72.7991   30.5879 C   0  0  0  0  0  0  0  0  0  0  0  0
  -32.4639   72.6605   30.5889 H   0  0  0  0  0  0  0  0  0  0  0  0
  1  2  1  0  0  0
  1  5  1  0  0  0
  2  3  1  0  0  0
  2  4  1  0  0  0
M  END
> <minimizedAffinity>
-1.83503

$$$$
3776


  5  4  0  0  0  0  0  0  0  0999 V2000
  -46.5530   57.9508   39.9714 O   0  0  0  0  0  0  0  0  0  0  0  0
  -47.5144   57.1522   40.6545 C   0  0  0  0  0  0  0  0  0  0  0  0
  -46.9855   56.8061   42.0380 C   0  0  0  0  0  0  0  0  0  0  0  0
  -48.8333   57.9067   40.7244 C   0  0  0  0  0  0  0  0  0  0  0  0
  -46.4274   58.7695   40.4809 H   0  0  0  0  0  0  0  0  0  0  0  0
  1  2  1  0  0  0
  1  5  1  0  0  0
  2  3  1  0  0  0
  2  4  1  0  0  0
M  END
> <minimizedAffinity>
-1.81236

$$$$
3776


  5  4  0  0  0  0  0  0  0  0999 V2000
  -34.4546   71.8550   27.1835 O   0  0  0  0  0  0  0  0  0  0  0  0
  -34.4245   73.2501   27.4693 C   0  0  0  0  0  0  0  0  0  0  0  0
  -34.2223   73.4507   28.9634 C   0  0  0  0  0  0  0  0  0  0  0  0
  -33.3190   73.9043   26.6548 C   0  0  0  0  0  0  0  0  0  0  0  0
  -33.5974   71.4773   27.4449 H   0  0  0  0  0  0  0  0  0  0  0  0
  1  2  1  0  0  0
  1  5  1  0  0  0
  2  3  1  0  0  0
  2  4  1  0  0  0
M  END
> <minimizedAffinity>
-1.78301

$$$$
3776


  5  4  0  0  0  0  0  0  0  0999 V2000
  -37.5980   70.4045   32.2214 O   0  0  0  0  0  0  0  0  0  0  0  0
  -37.7271   69.3408   31.2829 C   0  0  0  0  0  0  0  0  0  0  0  0
  -39.1835   69.2192   30.8615 C   0  0  0  0  0  0  0  0  0  0  0  0
  -36.8139   69.6068   30.0959 C   0  0  0  0  0  0  0  0  0  0  0  0
  -37.8746   71.2267   31.7820 H   0  0  0  0  0  0  0  0  0  0  0  0
  1  2  1  0  0  0
  1  5  1  0  0  0
  2  3  1  0  0  0
  2  4  1  0  0  0
M  END
> <minimizedAffinity>
-1.78259

$$$$
3776


  5  4  0  0  0  0  0  0  0  0999 V2000
  -46.7335   60.0122   37.8455 O   0  0  0  0  0  0  0  0  0  0  0  0
  -46.9555   60.8042   36.6827 C   0  0  0  0  0  0  0  0  0  0  0  0
  -45.6648   60.8918   35.8827 C   0  0  0  0  0  0  0  0  0  0  0  0
  -48.0862   60.1933   35.8692 C   0  0  0  0  0  0  0  0  0  0  0  0
  -46.4745   59.1208   37.5557 H   0  0  0  0  0  0  0  0  0  0  0  0
  1  2  1  0  0  0
  1  5  1  0  0  0
  2  3  1  0  0  0
  2  4  1  0  0  0
M  END
> <minimizedAffinity>
-1.72615

$$$$
3776


  5  4  0  0  0  0  0  0  0  0999 V2000
  -40.4722   64.3760   32.2154 O   0  0  0  0  0  0  0  0  0  0  0  0
  -40.5642   65.7796   32.4392 C   0  0  0  0  0  0  0  0  0  0  0  0
  -40.7864   66.4850   31.1101 C   0  0  0  0  0  0  0  0  0  0  0  0
  -41.6905   66.0569   33.4232 C   0  0  0  0  0  0  0  0  0  0  0  0
  -41.3143   64.0782   31.8309 H   0  0  0  0  0  0  0  0  0  0  0  0
  1  2  1  0  0  0
  1  5  1  0  0  0
  2  3  1  0  0  0
  2  4  1  0  0  0
M  END
> <minimizedAffinity>
-1.71071

$$$$
3776


  5  4  0  0  0  0  0  0  0  0999 V2000
  -40.9382   62.8587   35.6659 O   0  0  0  0  0  0  0  0  0  0  0  0
  -41.8080   62.9986   34.5467 C   0  0  0  0  0  0  0  0  0  0  0  0
  -40.9969   62.8845   33.2650 C   0  0  0  0  0  0  0  0  0  0  0  0
  -42.8976   61.9400   34.6240 C   0  0  0  0  0  0  0  0  0  0  0  0
  -40.5318   61.9764   35.6208 H   0  0  0  0  0  0  0  0  0  0  0  0
  1  2  1  0  0  0
  1  5  1  0  0  0
  2  3  1  0  0  0
  2  4  1  0  0  0
M  END
> <minimizedAffinity>
-1.70278

$$$$
3776


  5  4  0  0  0  0  0  0  0  0999 V2000
  -35.4427   69.8471   39.5297 O   0  0  0  0  0  0  0  0  0  0  0  0
  -34.0516   69.8398   39.8357 C   0  0  0  0  0  0  0  0  0  0  0  0
  -33.5440   71.2725   39.8928 C   0  0  0  0  0  0  0  0  0  0  0  0
  -33.8320   69.1078   41.1508 C   0  0  0  0  0  0  0  0  0  0  0  0
  -35.9034   70.3226   40.2420 H   0  0  0  0  0  0  0  0  0  0  0  0
  1  2  1  0  0  0
  1  5  1  0  0  0
  2  3  1  0  0  0
  2  4  1  0  0  0
M  END
> <minimizedAffinity>
-1.69759

$$$$
3776


  5  4  0  0  0  0  0  0  0  0999 V2000
  -40.9230   65.5018   30.9198 O   0  0  0  0  0  0  0  0  0  0  0  0
  -39.5523   65.2480   31.2125 C   0  0  0  0  0  0  0  0  0  0  0  0
  -39.0898   66.1984   32.3063 C   0  0  0  0  0  0  0  0  0  0  0  0
  -39.3889   63.7918   31.6205 C   0  0  0  0  0  0  0  0  0  0  0  0
  -41.4375   65.3356   31.7280 H   0  0  0  0  0  0  0  0  0  0  0  0
  1  2  1  0  0  0
  1  5  1  0  0  0
  2  3  1  0  0  0
  2  4  1  0  0  0
M  END
> <minimizedAffinity>
-1.69506

$$$$
3776


  5  4  0  0  0  0  0  0  0  0999 V2000
  -35.5986   72.9937   29.6387 O   0  0  0  0  0  0  0  0  0  0  0  0
  -36.6894   72.1731   29.2316 C   0  0  0  0  0  0  0  0  0  0  0  0
  -37.9352   72.5762   30.0056 C   0  0  0  0  0  0  0  0  0  0  0  0
  -36.8860   72.3106   27.7296 C   0  0  0  0  0  0  0  0  0  0  0  0
  -35.8229   73.9162   29.4278 H   0  0  0  0  0  0  0  0  0  0  0  0
  1  2  1  0  0  0
  1  5  1  0  0  0
  2  3  1  0  0  0
  2  4  1  0  0  0
M  END
> <minimizedAffinity>
-1.67372

$$$$
3776


  5  4  0  0  0  0  0  0  0  0999 V2000
  -36.2894   72.4136   29.3679 O   0  0  0  0  0  0  0  0  0  0  0  0
  -35.2967   72.6281   28.3693 C   0  0  0  0  0  0  0  0  0  0  0  0
  -34.1570   73.4418   28.9630 C   0  0  0  0  0  0  0  0  0  0  0  0
  -34.8186   71.2840   27.8418 C   0  0  0  0  0  0  0  0  0  0  0  0
  -35.8807   71.9115   30.0935 H   0  0  0  0  0  0  0  0  0  0  0  0
  1  2  1  0  0  0
  1  5  1  0  0  0
  2  3  1  0  0  0
  2  4  1  0  0  0
M  END
> <minimizedAffinity>
-1.67318

$$$$
3776


  5  4  0  0  0  0  0  0  0  0999 V2000
  -34.8656   71.6440   38.6482 O   0  0  0  0  0  0  0  0  0  0  0  0
  -33.7404   72.5023   38.8096 C   0  0  0  0  0  0  0  0  0  0  0  0
  -32.9745   72.0941   40.0587 C   0  0  0  0  0  0  0  0  0  0  0  0
  -32.8720   72.4290   37.5629 C   0  0  0  0  0  0  0  0  0  0  0  0
  -34.5361   70.7355   38.5400 H   0  0  0  0  0  0  0  0  0  0  0  0
  1  2  1  0  0  0
  1  5  1  0  0  0
  2  3  1  0  0  0
  2  4  1  0  0  0
M  END
> <minimizedAffinity>
-1.66309

$$$$
3776


  5  4  0  0  0  0  0  0  0  0999 V2000
  -37.3402   72.7193   33.0909 O   0  0  0  0  0  0  0  0  0  0  0  0
  -37.9155   71.9579   32.0335 C   0  0  0  0  0  0  0  0  0  0  0  0
  -39.0818   71.1471   32.5775 C   0  0  0  0  0  0  0  0  0  0  0  0
  -38.3494   72.8973   30.9187 C   0  0  0  0  0  0  0  0  0  0  0  0
  -38.0219   73.3248   33.4291 H   0  0  0  0  0  0  0  0  0  0  0  0
  1  2  1  0  0  0
  1  5  1  0  0  0
  2  3  1  0  0  0
  2  4  1  0  0  0
M  END
> <minimizedAffinity>
-1.65265

$$$$
3776


  5  4  0  0  0  0  0  0  0  0999 V2000
  -35.0414   72.4459   28.7749 O   0  0  0  0  0  0  0  0  0  0  0  0
  -34.3082   71.2288   28.8744 C   0  0  0  0  0  0  0  0  0  0  0  0
  -33.5793   70.9749   27.5637 C   0  0  0  0  0  0  0  0  0  0  0  0
  -33.3468   71.3181   30.0496 C   0  0  0  0  0  0  0  0  0  0  0  0
  -34.4069   73.1655   28.6160 H   0  0  0  0  0  0  0  0  0  0  0  0
  1  2  1  0  0  0
  1  5  1  0  0  0
  2  3  1  0  0  0
  2  4  1  0  0  0
M  END
> <minimizedAffinity>
-1.64841

$$$$
3776


  5  4  0  0  0  0  0  0  0  0999 V2000
  -47.0178   61.8283   37.4863 O   0  0  0  0  0  0  0  0  0  0  0  0
  -46.7343   60.6813   36.6907 C   0  0  0  0  0  0  0  0  0  0  0  0
  -47.9663   60.3213   35.8745 C   0  0  0  0  0  0  0  0  0  0  0  0
  -45.5323   60.9712   35.8048 C   0  0  0  0  0  0  0  0  0  0  0  0
  -47.2314   62.5634   36.8866 H   0  0  0  0  0  0  0  0  0  0  0  0
  1  2  1  0  0  0
  1  5  1  0  0  0
  2  3  1  0  0  0
  2  4  1  0  0  0
M  END
> <minimizedAffinity>
-1.62932

$$$$
3776


  5  4  0  0  0  0  0  0  0  0999 V2000
  -36.1879   69.2245   40.8974 O   0  0  0  0  0  0  0  0  0  0  0  0
  -35.5952   68.5301   39.8042 C   0  0  0  0  0  0  0  0  0  0  0  0
  -34.1370   68.2410   40.1262 C   0  0  0  0  0  0  0  0  0  0  0  0
  -36.3800   67.2550   39.5363 C   0  0  0  0  0  0  0  0  0  0  0  0
  -36.1401   68.6484   41.6794 H   0  0  0  0  0  0  0  0  0  0  0  0
  1  2  1  0  0  0
  1  5  1  0  0  0
  2  3  1  0  0  0
  2  4  1  0  0  0
M  END
> <minimizedAffinity>
-1.61911

$$$$
3776


  5  4  0  0  0  0  0  0  0  0999 V2000
  -35.6196   68.2152   42.6841 O   0  0  0  0  0  0  0  0  0  0  0  0
  -34.4967   68.1782   41.8086 C   0  0  0  0  0  0  0  0  0  0  0  0
  -33.2709   67.7227   42.5855 C   0  0  0  0  0  0  0  0  0  0  0  0
  -34.8030   67.2538   40.6402 C   0  0  0  0  0  0  0  0  0  0  0  0
  -35.7682   67.3143   43.0186 H   0  0  0  0  0  0  0  0  0  0  0  0
  1  2  1  0  0  0
  1  5  1  0  0  0
  2  3  1  0  0  0
  2  4  1  0  0  0
M  END
> <minimizedAffinity>
-1.61764

$$$$
3776


  5  4  0  0  0  0  0  0  0  0999 V2000
  -39.4789   70.4320   29.9947 O   0  0  0  0  0  0  0  0  0  0  0  0
  -38.9031   69.4040   30.7949 C   0  0  0  0  0  0  0  0  0  0  0  0
  -39.1166   69.7345   32.2641 C   0  0  0  0  0  0  0  0  0  0  0  0
  -39.5256   68.0683   30.4180 C   0  0  0  0  0  0  0  0  0  0  0  0
  -40.4328   70.4586   30.1823 H   0  0  0  0  0  0  0  0  0  0  0  0
  1  2  1  0  0  0
  1  5  1  0  0  0
  2  3  1  0  0  0
  2  4  1  0  0  0
M  END
> <minimizedAffinity>
-1.59777

$$$$
3776


  5  4  0  0  0  0  0  0  0  0999 V2000
  -48.5172   60.5568   38.0576 O   0  0  0  0  0  0  0  0  0  0  0  0
  -48.1855   59.3002   37.4746 C   0  0  0  0  0  0  0  0  0  0  0  0
  -48.5005   58.1900   38.4654 C   0  0  0  0  0  0  0  0  0  0  0  0
  -48.9548   59.1335   36.1731 C   0  0  0  0  0  0  0  0  0  0  0  0
  -49.4711   60.5566   38.2469 H   0  0  0  0  0  0  0  0  0  0  0  0
  1  2  1  0  0  0
  1  5  1  0  0  0
  2  3  1  0  0  0
  2  4  1  0  0  0
M  END
> <minimizedAffinity>
-1.59436

$$$$
3776


  5  4  0  0  0  0  0  0  0  0999 V2000
  -45.7257   60.7804   36.9538 O   0  0  0  0  0  0  0  0  0  0  0  0
  -45.0789   61.6662   36.0450 C   0  0  0  0  0  0  0  0  0  0  0  0
  -44.1381   62.5775   36.8184 C   0  0  0  0  0  0  0  0  0  0  0  0
  -44.3419   60.8529   34.9920 C   0  0  0  0  0  0  0  0  0  0  0  0
  -45.0407   60.2421   37.3859 H   0  0  0  0  0  0  0  0  0  0  0  0
  1  2  1  0  0  0
  1  5  1  0  0  0
  2  3  1  0  0  0
  2  4  1  0  0  0
M  END
> <minimizedAffinity>
-1.53927

$$$$
3776


  5  4  0  0  0  0  0  0  0  0999 V2000
  -33.5823   73.6216   39.5604 O   0  0  0  0  0  0  0  0  0  0  0  0
  -32.4794   72.7453   39.7715 C   0  0  0  0  0  0  0  0  0  0  0  0
  -31.3319   73.1568   38.8619 C   0  0  0  0  0  0  0  0  0  0  0  0
  -32.0819   72.7854   41.2391 C   0  0  0  0  0  0  0  0  0  0  0  0
  -33.2974   74.5224   39.7908 H   0  0  0  0  0  0  0  0  0  0  0  0
  1  2  1  0  0  0
  1  5  1  0  0  0
  2  3  1  0  0  0
  2  4  1  0  0  0
M  END
> <minimizedAffinity>
-1.50486

$$$$
3776


  5  4  0  0  0  0  0  0  0  0999 V2000
  -39.6382   65.4294   38.0571 O   0  0  0  0  0  0  0  0  0  0  0  0
  -40.7564   64.6315   38.4335 C   0  0  0  0  0  0  0  0  0  0  0  0
  -40.6882   64.3465   39.9260 C   0  0  0  0  0  0  0  0  0  0  0  0
  -42.0388   65.3553   38.0526 C   0  0  0  0  0  0  0  0  0  0  0  0
  -39.6904   66.2681   38.5466 H   0  0  0  0  0  0  0  0  0  0  0  0
  1  2  1  0  0  0
  1  5  1  0  0  0
  2  3  1  0  0  0
  2  4  1  0  0  0
M  END
> <minimizedAffinity>
-1.49606

$$$$
3776


  5  4  0  0  0  0  0  0  0  0999 V2000
  -39.5498   65.6019   38.1469 O   0  0  0  0  0  0  0  0  0  0  0  0
  -40.6267   65.3278   37.2560 C   0  0  0  0  0  0  0  0  0  0  0  0
  -40.7985   66.5005   36.3026 C   0  0  0  0  0  0  0  0  0  0  0  0
  -40.3446   64.0305   36.5137 C   0  0  0  0  0  0  0  0  0  0  0  0
  -38.7413   65.7053   37.6166 H   0  0  0  0  0  0  0  0  0  0  0  0
  1  2  1  0  0  0
  1  5  1  0  0  0
  2  3  1  0  0  0
  2  4  1  0  0  0
M  END
> <minimizedAffinity>
-1.48198

$$$$
3776


  5  4  0  0  0  0  0  0  0  0999 V2000
  -44.5863   58.0016   43.1488 O   0  0  0  0  0  0  0  0  0  0  0  0
  -45.7116   57.2540   43.6001 C   0  0  0  0  0  0  0  0  0  0  0  0
  -46.6650   57.0325   42.4359 C   0  0  0  0  0  0  0  0  0  0  0  0
  -45.2325   55.9401   44.1983 C   0  0  0  0  0  0  0  0  0  0  0  0
  -44.1373   57.4810   42.4610 H   0  0  0  0  0  0  0  0  0  0  0  0
  1  2  1  0  0  0
  1  5  1  0  0  0
  2  3  1  0  0  0
  2  4  1  0  0  0
M  END
> <minimizedAffinity>
-1.46441

$$$$
3776


  5  4  0  0  0  0  0  0  0  0999 V2000
  -38.4532   72.3750   29.5342 O   0  0  0  0  0  0  0  0  0  0  0  0
  -37.6211   72.8454   30.5901 C   0  0  0  0  0  0  0  0  0  0  0  0
  -38.4863   73.5045   31.6535 C   0  0  0  0  0  0  0  0  0  0  0  0
  -36.8199   71.6813   31.1527 C   0  0  0  0  0  0  0  0  0  0  0  0
  -39.0638   71.7153   29.9053 H   0  0  0  0  0  0  0  0  0  0  0  0
  1  2  1  0  0  0
  1  5  1  0  0  0
  2  3  1  0  0  0
  2  4  1  0  0  0
M  END
> <minimizedAffinity>
-1.46072

$$$$
3776


  5  4  0  0  0  0  0  0  0  0999 V2000
  -38.0349   73.0116   30.5201 O   0  0  0  0  0  0  0  0  0  0  0  0
  -38.8650   71.8548   30.5588 C   0  0  0  0  0  0  0  0  0  0  0  0
  -39.2153   71.5382   32.0047 C   0  0  0  0  0  0  0  0  0  0  0  0
  -40.1068   72.1012   29.7157 C   0  0  0  0  0  0  0  0  0  0  0  0
  -38.5372   73.7534   30.8984 H   0  0  0  0  0  0  0  0  0  0  0  0
  1  2  1  0  0  0
  1  5  1  0  0  0
  2  3  1  0  0  0
  2  4  1  0  0  0
M  END
> <minimizedAffinity>
-1.41992

$$$$
3776


  5  4  0  0  0  0  0  0  0  0999 V2000
  -48.9566   57.2960   40.4378 O   0  0  0  0  0  0  0  0  0  0  0  0
  -47.5339   57.3561   40.4735 C   0  0  0  0  0  0  0  0  0  0  0  0
  -47.0858   58.7813   40.1881 C   0  0  0  0  0  0  0  0  0  0  0  0
  -47.0461   56.8693   41.8294 C   0  0  0  0  0  0  0  0  0  0  0  0
  -49.2986   57.8850   41.1319 H   0  0  0  0  0  0  0  0  0  0  0  0
  1  2  1  0  0  0
  1  5  1  0  0  0
  2  3  1  0  0  0
  2  4  1  0  0  0
M  END
> <minimizedAffinity>
-1.41497

$$$$
3776


  5  4  0  0  0  0  0  0  0  0999 V2000
  -39.5665   64.0520   33.9938 O   0  0  0  0  0  0  0  0  0  0  0  0
  -40.7963   64.7365   34.2127 C   0  0  0  0  0  0  0  0  0  0  0  0
  -41.8232   63.7578   34.7615 C   0  0  0  0  0  0  0  0  0  0  0  0
  -40.5590   65.9009   35.1622 C   0  0  0  0  0  0  0  0  0  0  0  0
  -39.2579   63.7096   34.8501 H   0  0  0  0  0  0  0  0  0  0  0  0
  1  2  1  0  0  0
  1  5  1  0  0  0
  2  3  1  0  0  0
  2  4  1  0  0  0
M  END
> <minimizedAffinity>
-1.40445

$$$$
3776


  5  4  0  0  0  0  0  0  0  0999 V2000
  -43.1720   64.2379   39.2511 O   0  0  0  0  0  0  0  0  0  0  0  0
  -42.1209   63.2871   39.3923 C   0  0  0  0  0  0  0  0  0  0  0  0
  -41.8046   62.6848   38.0319 C   0  0  0  0  0  0  0  0  0  0  0  0
  -40.9079   63.9693   40.0060 C   0  0  0  0  0  0  0  0  0  0  0  0
  -42.8626   64.9398   38.6534 H   0  0  0  0  0  0  0  0  0  0  0  0
  1  2  1  0  0  0
  1  5  1  0  0  0
  2  3  1  0  0  0
  2  4  1  0  0  0
M  END
> <minimizedAffinity>
-1.37119

$$$$
