6363


  6  5  0  0  0  0  0  0  0  0999 V2000
  -47.1723   70.4819   27.6165 N   0  0  0  0  0  0  0  0  0  0  0  0
  -47.3587   71.9315   27.5729 C   0  0  0  0  0  0  0  0  0  0  0  0
  -48.8454   72.2749   27.6064 C   0  0  0  0  0  0  0  0  0  0  0  0
  -46.6951   72.4914   26.3187 C   0  0  0  0  0  0  0  0  0  0  0  0
  -47.6224   70.0509   26.8095 H   0  0  0  0  0  0  0  0  0  0  0  0
  -47.6423   70.1008   28.4369 H   0  0  0  0  0  0  0  0  0  0  0  0
  1  2  1  0  0  0
  1  5  1  0  0  0
  1  6  1  0  0  0
  2  3  1  0  0  0
  2  4  1  0  0  0
M  END
> <minimizedAffinity>
-3.25658

$$$$
6363


  6  5  0  0  0  0  0  0  0  0999 V2000
  -48.9111   73.3802   27.3334 N   0  0  0  0  0  0  0  0  0  0  0  0
  -47.9298   72.4572   26.7648 C   0  0  0  0  0  0  0  0  0  0  0  0
  -47.4011   71.5164   27.8440 C   0  0  0  0  0  0  0  0  0  0  0  0
  -46.7950   73.2521   26.1268 C   0  0  0  0  0  0  0  0  0  0  0  0
  -48.4754   73.9400   28.0658 H   0  0  0  0  0  0  0  0  0  0  0  0
  -49.6545   72.8519   27.7886 H   0  0  0  0  0  0  0  0  0  0  0  0
  1  2  1  0  0  0
  1  5  1  0  0  0
  1  6  1  0  0  0
  2  3  1  0  0  0
  2  4  1  0  0  0
M  END
> <minimizedAffinity>
-3.24482

$$$$
6363


  6  5  0  0  0  0  0  0  0  0999 V2000
  -35.8996   63.6592   30.5566 N   0  0  0  0  0  0  0  0  0  0  0  0
  -36.6072   62.7942   31.4996 C   0  0  0  0  0  0  0  0  0  0  0  0
  -36.7981   61.4034   30.9008 C   0  0  0  0  0  0  0  0  0  0  0  0
  -37.9488   63.4250   31.8589 C   0  0  0  0  0  0  0  0  0  0  0  0
  -36.4400   63.7483   29.6966 H   0  0  0  0  0  0  0  0  0  0  0  0
  -35.0168   63.2250   30.2898 H   0  0  0  0  0  0  0  0  0  0  0  0
  1  2  1  0  0  0
  1  5  1  0  0  0
  1  6  1  0  0  0
  2  3  1  0  0  0
  2  4  1  0  0  0
M  END
> <minimizedAffinity>
-2.97557

$$$$
6363


  6  5  0  0  0  0  0  0  0  0999 V2000
  -37.3712   61.8953   34.6258 N   0  0  0  0  0  0  0  0  0  0  0  0
  -37.3393   60.9048   33.5505 C   0  0  0  0  0  0  0  0  0  0  0  0
  -37.1365   61.5928   32.2034 C   0  0  0  0  0  0  0  0  0  0  0  0
  -38.6338   60.0982   33.5646 C   0  0  0  0  0  0  0  0  0  0  0  0
  -38.1423   62.5449   34.4747 H   0  0  0  0  0  0  0  0  0  0  0  0
  -36.5212   62.4573   34.5989 H   0  0  0  0  0  0  0  0  0  0  0  0
  1  2  1  0  0  0
  1  5  1  0  0  0
  1  6  1  0  0  0
  2  3  1  0  0  0
  2  4  1  0  0  0
M  END
> <minimizedAffinity>
-2.96246

$$$$
6363


  6  5  0  0  0  0  0  0  0  0999 V2000
  -37.2463   61.7889   34.4791 N   0  0  0  0  0  0  0  0  0  0  0  0
  -38.0569   61.4544   33.3090 C   0  0  0  0  0  0  0  0  0  0  0  0
  -38.6807   60.0715   33.4755 C   0  0  0  0  0  0  0  0  0  0  0  0
  -37.1897   61.5172   32.0557 C   0  0  0  0  0  0  0  0  0  0  0  0
  -36.4966   61.1063   34.5870 H   0  0  0  0  0  0  0  0  0  0  0  0
  -37.8152   61.7165   35.3219 H   0  0  0  0  0  0  0  0  0  0  0  0
  1  2  1  0  0  0
  1  5  1  0  0  0
  1  6  1  0  0  0
  2  3  1  0  0  0
  2  4  1  0  0  0
M  END
> <minimizedAffinity>
-2.80856

$$$$
6363


  6  5  0  0  0  0  0  0  0  0999 V2000
  -37.6453   61.9770   34.8412 N   0  0  0  0  0  0  0  0  0  0  0  0
  -38.8116   61.3193   34.2536 C   0  0  0  0  0  0  0  0  0  0  0  0
  -39.6379   60.6376   35.3407 C   0  0  0  0  0  0  0  0  0  0  0  0
  -38.3519   60.3135   33.2030 C   0  0  0  0  0  0  0  0  0  0  0  0
  -37.0584   61.2870   35.3091 H   0  0  0  0  0  0  0  0  0  0  0  0
  -37.9475   62.6265   35.5663 H   0  0  0  0  0  0  0  0  0  0  0  0
  1  2  1  0  0  0
  1  5  1  0  0  0
  1  6  1  0  0  0
  2  3  1  0  0  0
  2  4  1  0  0  0
M  END
> <minimizedAffinity>
-2.79003

$$$$
6363


  6  5  0  0  0  0  0  0  0  0999 V2000
  -40.0801   60.4595   36.1044 N   0  0  0  0  0  0  0  0  0  0  0  0
  -40.1360   59.8814   34.7624 C   0  0  0  0  0  0  0  0  0  0  0  0
  -38.9323   60.3344   33.9408 C   0  0  0  0  0  0  0  0  0  0  0  0
  -41.4432   60.2867   34.0889 C   0  0  0  0  0  0  0  0  0  0  0  0
  -40.0943   61.4772   36.0433 H   0  0  0  0  0  0  0  0  0  0  0  0
  -39.1935   60.2170   36.5450 H   0  0  0  0  0  0  0  0  0  0  0  0
  1  2  1  0  0  0
  1  5  1  0  0  0
  1  6  1  0  0  0
  2  3  1  0  0  0
  2  4  1  0  0  0
M  END
> <minimizedAffinity>
-2.74390

$$$$
6363


  6  5  0  0  0  0  0  0  0  0999 V2000
  -39.9011   60.2470   35.8954 N   0  0  0  0  0  0  0  0  0  0  0  0
  -40.0076   60.7089   34.5121 C   0  0  0  0  0  0  0  0  0  0  0  0
  -41.3641   60.3235   33.9287 C   0  0  0  0  0  0  0  0  0  0  0  0
  -38.8685   60.1153   33.6894 C   0  0  0  0  0  0  0  0  0  0  0  0
  -39.9914   59.2320   35.9289 H   0  0  0  0  0  0  0  0  0  0  0  0
  -40.6793   60.6162   36.4406 H   0  0  0  0  0  0  0  0  0  0  0  0
  1  2  1  0  0  0
  1  5  1  0  0  0
  1  6  1  0  0  0
  2  3  1  0  0  0
  2  4  1  0  0  0
M  END
> <minimizedAffinity>
-2.72729

$$$$
6363


  6  5  0  0  0  0  0  0  0  0999 V2000
  -35.7343   63.8865   32.0089 N   0  0  0  0  0  0  0  0  0  0  0  0
  -36.9861   63.3451   31.4815 C   0  0  0  0  0  0  0  0  0  0  0  0
  -38.1404   63.6641   32.4275 C   0  0  0  0  0  0  0  0  0  0  0  0
  -36.8431   61.8399   31.2794 C   0  0  0  0  0  0  0  0  0  0  0  0
  -35.5329   63.4699   32.9174 H   0  0  0  0  0  0  0  0  0  0  0  0
  -35.8371   64.8869   32.1752 H   0  0  0  0  0  0  0  0  0  0  0  0
  1  2  1  0  0  0
  1  5  1  0  0  0
  1  6  1  0  0  0
  2  3  1  0  0  0
  2  4  1  0  0  0
M  END
> <minimizedAffinity>
-2.70682

$$$$
6363


  6  5  0  0  0  0  0  0  0  0999 V2000
  -37.4724   64.8571   30.6593 N   0  0  0  0  0  0  0  0  0  0  0  0
  -38.3635   66.0131   30.5712 C   0  0  0  0  0  0  0  0  0  0  0  0
  -39.8202   65.5656   30.6545 C   0  0  0  0  0  0  0  0  0  0  0  0
  -38.0943   66.7639   29.2710 C   0  0  0  0  0  0  0  0  0  0  0  0
  -37.6591   64.2170   29.8879 H   0  0  0  0  0  0  0  0  0  0  0  0
  -37.6720   64.3351   31.5118 H   0  0  0  0  0  0  0  0  0  0  0  0
  1  2  1  0  0  0
  1  5  1  0  0  0
  1  6  1  0  0  0
  2  3  1  0  0  0
  2  4  1  0  0  0
M  END
> <minimizedAffinity>
-2.63258

$$$$
6363


  6  5  0  0  0  0  0  0  0  0999 V2000
  -37.5614   61.9732   34.7367 N   0  0  0  0  0  0  0  0  0  0  0  0
  -38.8097   61.2753   34.4320 C   0  0  0  0  0  0  0  0  0  0  0  0
  -38.5434   60.0992   33.4966 C   0  0  0  0  0  0  0  0  0  0  0  0
  -39.8010   62.2551   33.8121 C   0  0  0  0  0  0  0  0  0  0  0  0
  -37.1465   62.3309   33.8768 H   0  0  0  0  0  0  0  0  0  0  0  0
  -36.8858   61.3141   35.1214 H   0  0  0  0  0  0  0  0  0  0  0  0
  1  2  1  0  0  0
  1  5  1  0  0  0
  1  6  1  0  0  0
  2  3  1  0  0  0
  2  4  1  0  0  0
M  END
> <minimizedAffinity>
-2.62137

$$$$
6363


  6  5  0  0  0  0  0  0  0  0999 V2000
  -37.4314   61.8957   34.6478 N   0  0  0  0  0  0  0  0  0  0  0  0
  -38.0188   61.5598   33.3516 C   0  0  0  0  0  0  0  0  0  0  0  0
  -39.1001   62.5716   32.9827 C   0  0  0  0  0  0  0  0  0  0  0  0
  -38.5867   60.1450   33.4027 C   0  0  0  0  0  0  0  0  0  0  0  0
  -38.1518   61.8772   35.3691 H   0  0  0  0  0  0  0  0  0  0  0  0
  -37.0796   62.8522   34.6268 H   0  0  0  0  0  0  0  0  0  0  0  0
  1  2  1  0  0  0
  1  5  1  0  0  0
  1  6  1  0  0  0
  2  3  1  0  0  0
  2  4  1  0  0  0
M  END
> <minimizedAffinity>
-2.61507

$$$$
6363


  6  5  0  0  0  0  0  0  0  0999 V2000
  -38.1091   62.9201   31.3822 N   0  0  0  0  0  0  0  0  0  0  0  0
  -37.2152   61.8544   31.8332 C   0  0  0  0  0  0  0  0  0  0  0  0
  -36.6862   61.0666   30.6379 C   0  0  0  0  0  0  0  0  0  0  0  0
  -37.9601   60.9434   32.8037 C   0  0  0  0  0  0  0  0  0  0  0  0
  -38.9019   62.5182   30.8828 H   0  0  0  0  0  0  0  0  0  0  0  0
  -37.6239   63.5119   30.7088 H   0  0  0  0  0  0  0  0  0  0  0  0
  1  2  1  0  0  0
  1  5  1  0  0  0
  1  6  1  0  0  0
  2  3  1  0  0  0
  2  4  1  0  0  0
M  END
> <minimizedAffinity>
-2.61396

$$$$
6363


  6  5  0  0  0  0  0  0  0  0999 V2000
  -37.5627   65.6575   29.8772 N   0  0  0  0  0  0  0  0  0  0  0  0
  -38.5131   66.7297   29.5850 C   0  0  0  0  0  0  0  0  0  0  0  0
  -37.7794   68.0586   29.4278 C   0  0  0  0  0  0  0  0  0  0  0  0
  -39.5515   66.8055   30.6999 C   0  0  0  0  0  0  0  0  0  0  0  0
  -37.0695   65.8599   30.7463 H   0  0  0  0  0  0  0  0  0  0  0  0
  -36.8489   65.6252   29.1502 H   0  0  0  0  0  0  0  0  0  0  0  0
  1  2  1  0  0  0
  1  5  1  0  0  0
  1  6  1  0  0  0
  2  3  1  0  0  0
  2  4  1  0  0  0
M  END
> <minimizedAffinity>
-2.59978

$$$$
6363


  6  5  0  0  0  0  0  0  0  0999 V2000
  -40.1334   60.3807   36.1687 N   0  0  0  0  0  0  0  0  0  0  0  0
  -41.2709   60.7739   35.3382 C   0  0  0  0  0  0  0  0  0  0  0  0
  -42.5430   60.0834   35.8223 C   0  0  0  0  0  0  0  0  0  0  0  0
  -40.9798   60.4275   33.8815 C   0  0  0  0  0  0  0  0  0  0  0  0
  -39.9960   59.3720   36.1119 H   0  0  0  0  0  0  0  0  0  0  0  0
  -40.3381   60.5815   37.1469 H   0  0  0  0  0  0  0  0  0  0  0  0
  1  2  1  0  0  0
  1  5  1  0  0  0
  1  6  1  0  0  0
  2  3  1  0  0  0
  2  4  1  0  0  0
M  END
> <minimizedAffinity>
-2.54929

$$$$
6363


  6  5  0  0  0  0  0  0  0  0999 V2000
  -36.9397   62.2406   33.3719 N   0  0  0  0  0  0  0  0  0  0  0  0
  -37.1745   62.6285   31.9818 C   0  0  0  0  0  0  0  0  0  0  0  0
  -38.5649   63.2394   31.8307 C   0  0  0  0  0  0  0  0  0  0  0  0
  -37.0106   61.4093   31.0798 C   0  0  0  0  0  0  0  0  0  0  0  0
  -37.6306   61.5480   33.6591 H   0  0  0  0  0  0  0  0  0  0  0  0
  -37.0800   63.0462   33.9806 H   0  0  0  0  0  0  0  0  0  0  0  0
  1  2  1  0  0  0
  1  5  1  0  0  0
  1  6  1  0  0  0
  2  3  1  0  0  0
  2  4  1  0  0  0
M  END
> <minimizedAffinity>
-2.54378

$$$$
6363


  6  5  0  0  0  0  0  0  0  0999 V2000
  -36.6996   64.3949   32.2344 N   0  0  0  0  0  0  0  0  0  0  0  0
  -37.4531   63.1418   32.2334 C   0  0  0  0  0  0  0  0  0  0  0  0
  -36.7887   62.1258   31.3084 C   0  0  0  0  0  0  0  0  0  0  0  0
  -38.8915   63.4144   31.8051 C   0  0  0  0  0  0  0  0  0  0  0  0
  -36.6736   64.7835   31.2921 H   0  0  0  0  0  0  0  0  0  0  0  0
  -35.7298   64.2112   32.4891 H   0  0  0  0  0  0  0  0  0  0  0  0
  1  2  1  0  0  0
  1  5  1  0  0  0
  1  6  1  0  0  0
  2  3  1  0  0  0
  2  4  1  0  0  0
M  END
> <minimizedAffinity>
-2.49449

$$$$
6363


  6  5  0  0  0  0  0  0  0  0999 V2000
  -37.4423   64.9445   30.6905 N   0  0  0  0  0  0  0  0  0  0  0  0
  -38.4662   65.9627   30.4601 C   0  0  0  0  0  0  0  0  0  0  0  0
  -38.0972   66.8201   29.2527 C   0  0  0  0  0  0  0  0  0  0  0  0
  -38.6221   66.8186   31.7130 C   0  0  0  0  0  0  0  0  0  0  0  0
  -36.5446   65.3919   30.8733 H   0  0  0  0  0  0  0  0  0  0  0  0
  -37.3131   64.3912   29.8441 H   0  0  0  0  0  0  0  0  0  0  0  0
  1  2  1  0  0  0
  1  5  1  0  0  0
  1  6  1  0  0  0
  2  3  1  0  0  0
  2  4  1  0  0  0
M  END
> <minimizedAffinity>
-2.48703

$$$$
6363


  6  5  0  0  0  0  0  0  0  0999 V2000
  -32.3767   72.6584   31.5544 N   0  0  0  0  0  0  0  0  0  0  0  0
  -32.7825   71.9494   30.3416 C   0  0  0  0  0  0  0  0  0  0  0  0
  -34.1807   71.3628   30.5146 C   0  0  0  0  0  0  0  0  0  0  0  0
  -31.7650   70.8573   30.0274 C   0  0  0  0  0  0  0  0  0  0  0  0
  -32.3617   72.0130   32.3435 H   0  0  0  0  0  0  0  0  0  0  0  0
  -33.0715   73.3677   31.7850 H   0  0  0  0  0  0  0  0  0  0  0  0
  1  2  1  0  0  0
  1  5  1  0  0  0
  1  6  1  0  0  0
  2  3  1  0  0  0
  2  4  1  0  0  0
M  END
> <minimizedAffinity>
-2.46546

$$$$
6363


  6  5  0  0  0  0  0  0  0  0999 V2000
  -43.9400   60.1500   33.2799 N   0  0  0  0  0  0  0  0  0  0  0  0
  -43.4785   60.7135   34.5478 C   0  0  0  0  0  0  0  0  0  0  0  0
  -44.6592   61.2637   35.3431 C   0  0  0  0  0  0  0  0  0  0  0  0
  -42.4470   61.8033   34.2736 C   0  0  0  0  0  0  0  0  0  0  0  0
  -44.3949   60.8742   32.7248 H   0  0  0  0  0  0  0  0  0  0  0  0
  -44.6530   59.4437   33.4585 H   0  0  0  0  0  0  0  0  0  0  0  0
  1  2  1  0  0  0
  1  5  1  0  0  0
  1  6  1  0  0  0
  2  3  1  0  0  0
  2  4  1  0  0  0
M  END
> <minimizedAffinity>
-2.45421

$$$$
6363


  6  5  0  0  0  0  0  0  0  0999 V2000
  -42.3966   59.9850   35.9094 N   0  0  0  0  0  0  0  0  0  0  0  0
  -42.2008   59.7754   34.4755 C   0  0  0  0  0  0  0  0  0  0  0  0
  -41.0076   60.5879   33.9803 C   0  0  0  0  0  0  0  0  0  0  0  0
  -43.4736   60.1594   33.7277 C   0  0  0  0  0  0  0  0  0  0  0  0
  -42.5778   60.9714   36.0931 H   0  0  0  0  0  0  0  0  0  0  0  0
  -41.5370   59.7597   36.4089 H   0  0  0  0  0  0  0  0  0  0  0  0
  1  2  1  0  0  0
  1  5  1  0  0  0
  1  6  1  0  0  0
  2  3  1  0  0  0
  2  4  1  0  0  0
M  END
> <minimizedAffinity>
-2.44254

$$$$
6363


  6  5  0  0  0  0  0  0  0  0999 V2000
  -32.3729   72.6546   31.4833 N   0  0  0  0  0  0  0  0  0  0  0  0
  -32.5980   71.4925   30.6248 C   0  0  0  0  0  0  0  0  0  0  0  0
  -31.7741   71.6123   29.3457 C   0  0  0  0  0  0  0  0  0  0  0  0
  -34.0858   71.3748   30.3094 C   0  0  0  0  0  0  0  0  0  0  0  0
  -32.6541   73.5046   30.9955 H   0  0  0  0  0  0  0  0  0  0  0  0
  -31.3757   72.7547   31.6696 H   0  0  0  0  0  0  0  0  0  0  0  0
  1  2  1  0  0  0
  1  5  1  0  0  0
  1  6  1  0  0  0
  2  3  1  0  0  0
  2  4  1  0  0  0
M  END
> <minimizedAffinity>
-2.42034

$$$$
6363


  6  5  0  0  0  0  0  0  0  0999 V2000
  -36.4749   64.1247   32.0157 N   0  0  0  0  0  0  0  0  0  0  0  0
  -37.8872   64.4922   32.1090 C   0  0  0  0  0  0  0  0  0  0  0  0
  -38.7686   63.2664   31.8859 C   0  0  0  0  0  0  0  0  0  0  0  0
  -38.1966   65.5828   31.0884 C   0  0  0  0  0  0  0  0  0  0  0  0
  -36.2763   63.7473   31.0896 H   0  0  0  0  0  0  0  0  0  0  0  0
  -36.2724   63.3736   32.6743 H   0  0  0  0  0  0  0  0  0  0  0  0
  1  2  1  0  0  0
  1  5  1  0  0  0
  1  6  1  0  0  0
  2  3  1  0  0  0
  2  4  1  0  0  0
M  END
> <minimizedAffinity>
-2.39877

$$$$
6363


  6  5  0  0  0  0  0  0  0  0999 V2000
  -37.4328   64.6035   32.4408 N   0  0  0  0  0  0  0  0  0  0  0  0
  -38.1202   63.4776   31.8100 C   0  0  0  0  0  0  0  0  0  0  0  0
  -39.6302   63.6978   31.8364 C   0  0  0  0  0  0  0  0  0  0  0  0
  -37.7422   62.1855   32.5271 C   0  0  0  0  0  0  0  0  0  0  0  0
  -37.7304   64.6901   33.4121 H   0  0  0  0  0  0  0  0  0  0  0  0
  -37.7083   65.4722   31.9842 H   0  0  0  0  0  0  0  0  0  0  0  0
  1  2  1  0  0  0
  1  5  1  0  0  0
  1  6  1  0  0  0
  2  3  1  0  0  0
  2  4  1  0  0  0
M  END
> <minimizedAffinity>
-2.34109

$$$$
6363


  6  5  0  0  0  0  0  0  0  0999 V2000
  -41.8365   61.8458   33.8301 N   0  0  0  0  0  0  0  0  0  0  0  0
  -41.5500   60.4125   33.8732 C   0  0  0  0  0  0  0  0  0  0  0  0
  -42.8358   59.6105   33.6924 C   0  0  0  0  0  0  0  0  0  0  0  0
  -40.8717   60.0698   35.1957 C   0  0  0  0  0  0  0  0  0  0  0  0
  -42.4803   62.0925   34.5812 H   0  0  0  0  0  0  0  0  0  0  0  0
  -42.3187   62.0726   32.9611 H   0  0  0  0  0  0  0  0  0  0  0  0
  1  2  1  0  0  0
  1  5  1  0  0  0
  1  6  1  0  0  0
  2  3  1  0  0  0
  2  4  1  0  0  0
M  END
> <minimizedAffinity>
-2.33554

$$$$
6363


  6  5  0  0  0  0  0  0  0  0999 V2000
  -37.2502   70.3261   27.1783 N   0  0  0  0  0  0  0  0  0  0  0  0
  -36.8800   69.9712   28.5476 C   0  0  0  0  0  0  0  0  0  0  0  0
  -37.6598   68.7414   29.0046 C   0  0  0  0  0  0  0  0  0  0  0  0
  -37.1412   71.1590   29.4683 C   0  0  0  0  0  0  0  0  0  0  0  0
  -38.2463   70.5392   27.1336 H   0  0  0  0  0  0  0  0  0  0  0  0
  -37.1071   69.5237   26.5660 H   0  0  0  0  0  0  0  0  0  0  0  0
  1  2  1  0  0  0
  1  5  1  0  0  0
  1  6  1  0  0  0
  2  3  1  0  0  0
  2  4  1  0  0  0
M  END
> <minimizedAffinity>
-2.33102

$$$$
6363


  6  5  0  0  0  0  0  0  0  0999 V2000
  -35.5697   70.5240   28.1442 N   0  0  0  0  0  0  0  0  0  0  0  0
  -36.9841   70.4124   28.4982 C   0  0  0  0  0  0  0  0  0  0  0  0
  -37.3301   68.9671   28.8454 C   0  0  0  0  0  0  0  0  0  0  0  0
  -37.8388   70.9176   27.3402 C   0  0  0  0  0  0  0  0  0  0  0  0
  -35.3691   69.9393   27.3333 H   0  0  0  0  0  0  0  0  0  0  0  0
  -34.9968   70.1573   28.9034 H   0  0  0  0  0  0  0  0  0  0  0  0
  1  2  1  0  0  0
  1  5  1  0  0  0
  1  6  1  0  0  0
  2  3  1  0  0  0
  2  4  1  0  0  0
M  END
> <minimizedAffinity>
-2.31858

$$$$
6363


  6  5  0  0  0  0  0  0  0  0999 V2000
  -40.2385   61.8957   33.5843 N   0  0  0  0  0  0  0  0  0  0  0  0
  -39.2824   61.0179   34.2579 C   0  0  0  0  0  0  0  0  0  0  0  0
  -38.4035   60.3072   33.2324 C   0  0  0  0  0  0  0  0  0  0  0  0
  -40.0372   60.0135   35.1228 C   0  0  0  0  0  0  0  0  0  0  0  0
  -40.8381   61.3466   32.9692 H   0  0  0  0  0  0  0  0  0  0  0  0
  -39.7385   62.5474   32.9806 H   0  0  0  0  0  0  0  0  0  0  0  0
  1  2  1  0  0  0
  1  5  1  0  0  0
  1  6  1  0  0  0
  2  3  1  0  0  0
  2  4  1  0  0  0
M  END
> <minimizedAffinity>
-2.30532

$$$$
6363


  6  5  0  0  0  0  0  0  0  0999 V2000
  -39.4599   68.3725   30.2320 N   0  0  0  0  0  0  0  0  0  0  0  0
  -38.0980   68.0053   29.8470 C   0  0  0  0  0  0  0  0  0  0  0  0
  -37.5427   69.0113   28.8426 C   0  0  0  0  0  0  0  0  0  0  0  0
  -38.0971   66.5944   29.2671 C   0  0  0  0  0  0  0  0  0  0  0  0
  -40.0628   68.3755   29.4098 H   0  0  0  0  0  0  0  0  0  0  0  0
  -39.4690   69.3268   30.5902 H   0  0  0  0  0  0  0  0  0  0  0  0
  1  2  1  0  0  0
  1  5  1  0  0  0
  1  6  1  0  0  0
  2  3  1  0  0  0
  2  4  1  0  0  0
M  END
> <minimizedAffinity>
-2.29805

$$$$
6363


  6  5  0  0  0  0  0  0  0  0999 V2000
  -35.4144   70.3822   31.0660 N   0  0  0  0  0  0  0  0  0  0  0  0
  -35.7776   70.5465   29.6591 C   0  0  0  0  0  0  0  0  0  0  0  0
  -36.2706   71.9679   29.4027 C   0  0  0  0  0  0  0  0  0  0  0  0
  -36.8438   69.5211   29.2868 C   0  0  0  0  0  0  0  0  0  0  0  0
  -36.2283   70.5539   31.6556 H   0  0  0  0  0  0  0  0  0  0  0  0
  -34.7255   71.0869   31.3263 H   0  0  0  0  0  0  0  0  0  0  0  0
  1  2  1  0  0  0
  1  5  1  0  0  0
  1  6  1  0  0  0
  2  3  1  0  0  0
  2  4  1  0  0  0
M  END
> <minimizedAffinity>
-2.29573

$$$$
6363


  6  5  0  0  0  0  0  0  0  0999 V2000
  -41.8344   61.7756   33.6831 N   0  0  0  0  0  0  0  0  0  0  0  0
  -42.6288   60.8345   34.4714 C   0  0  0  0  0  0  0  0  0  0  0  0
  -42.8580   59.5470   33.6845 C   0  0  0  0  0  0  0  0  0  0  0  0
  -43.9539   61.4854   34.8552 C   0  0  0  0  0  0  0  0  0  0  0  0
  -42.3271   62.0065   32.8209 H   0  0  0  0  0  0  0  0  0  0  0  0
  -40.9620   61.3323   33.3979 H   0  0  0  0  0  0  0  0  0  0  0  0
  1  2  1  0  0  0
  1  5  1  0  0  0
  1  6  1  0  0  0
  2  3  1  0  0  0
  2  4  1  0  0  0
M  END
> <minimizedAffinity>
-2.23724

$$$$
6363


  6  5  0  0  0  0  0  0  0  0999 V2000
  -37.3354   64.5707   32.4258 N   0  0  0  0  0  0  0  0  0  0  0  0
  -38.5963   65.0020   31.8238 C   0  0  0  0  0  0  0  0  0  0  0  0
  -39.2648   66.0600   32.6972 C   0  0  0  0  0  0  0  0  0  0  0  0
  -39.5073   63.7936   31.6327 C   0  0  0  0  0  0  0  0  0  0  0  0
  -37.5115   64.1673   33.3454 H   0  0  0  0  0  0  0  0  0  0  0  0
  -36.7370   65.3806   32.5843 H   0  0  0  0  0  0  0  0  0  0  0  0
  1  2  1  0  0  0
  1  5  1  0  0  0
  1  6  1  0  0  0
  2  3  1  0  0  0
  2  4  1  0  0  0
M  END
> <minimizedAffinity>
-2.22400

$$$$
6363


  6  5  0  0  0  0  0  0  0  0999 V2000
  -35.4261   70.3847   31.0721 N   0  0  0  0  0  0  0  0  0  0  0  0
  -36.4989   70.8065   30.1725 C   0  0  0  0  0  0  0  0  0  0  0  0
  -36.5216   69.9255   28.9266 C   0  0  0  0  0  0  0  0  0  0  0  0
  -36.3043   72.2736   29.8029 C   0  0  0  0  0  0  0  0  0  0  0  0
  -34.5262   70.4681   30.6001 H   0  0  0  0  0  0  0  0  0  0  0  0
  -35.5353   69.3961   31.2954 H   0  0  0  0  0  0  0  0  0  0  0  0
  1  2  1  0  0  0
  1  5  1  0  0  0
  1  6  1  0  0  0
  2  3  1  0  0  0
  2  4  1  0  0  0
M  END
> <minimizedAffinity>
-2.22276

$$$$
6363


  6  5  0  0  0  0  0  0  0  0999 V2000
  -38.6479   65.7215   30.0888 N   0  0  0  0  0  0  0  0  0  0  0  0
  -39.7117   65.8695   31.0811 C   0  0  0  0  0  0  0  0  0  0  0  0
  -40.7436   64.7567   30.9203 C   0  0  0  0  0  0  0  0  0  0  0  0
  -40.3586   67.2428   30.9310 C   0  0  0  0  0  0  0  0  0  0  0  0
  -39.0408   65.7775   29.1497 H   0  0  0  0  0  0  0  0  0  0  0  0
  -38.2350   64.7926   30.1655 H   0  0  0  0  0  0  0  0  0  0  0  0
  1  2  1  0  0  0
  1  5  1  0  0  0
  1  6  1  0  0  0
  2  3  1  0  0  0
  2  4  1  0  0  0
M  END
> <minimizedAffinity>
-2.21235

$$$$
6363


  6  5  0  0  0  0  0  0  0  0999 V2000
  -40.9077   72.4354   29.4786 N   0  0  0  0  0  0  0  0  0  0  0  0
  -39.8774   71.4237   29.2482 C   0  0  0  0  0  0  0  0  0  0  0  0
  -40.4519   70.2558   28.4511 C   0  0  0  0  0  0  0  0  0  0  0  0
  -39.3205   70.9518   30.5875 C   0  0  0  0  0  0  0  0  0  0  0  0
  -41.6784   72.0296   30.0086 H   0  0  0  0  0  0  0  0  0  0  0  0
  -41.3044   72.7294   28.5868 H   0  0  0  0  0  0  0  0  0  0  0  0
  1  2  1  0  0  0
  1  5  1  0  0  0
  1  6  1  0  0  0
  2  3  1  0  0  0
  2  4  1  0  0  0
M  END
> <minimizedAffinity>
-2.20934

$$$$
6363


  6  5  0  0  0  0  0  0  0  0999 V2000
  -38.4797   67.6616   32.1768 N   0  0  0  0  0  0  0  0  0  0  0  0
  -38.9549   66.7570   31.1308 C   0  0  0  0  0  0  0  0  0  0  0  0
  -38.2604   67.0672   29.8077 C   0  0  0  0  0  0  0  0  0  0  0  0
  -40.4691   66.8850   30.9982 C   0  0  0  0  0  0  0  0  0  0  0  0
  -38.6875   68.6262   31.9204 H   0  0  0  0  0  0  0  0  0  0  0  0
  -37.4644   67.6019   32.2458 H   0  0  0  0  0  0  0  0  0  0  0  0
  1  2  1  0  0  0
  1  5  1  0  0  0
  1  6  1  0  0  0
  2  3  1  0  0  0
  2  4  1  0  0  0
M  END
> <minimizedAffinity>
-2.20897

$$$$
6363


  6  5  0  0  0  0  0  0  0  0999 V2000
  -35.0575   70.7348   27.7936 N   0  0  0  0  0  0  0  0  0  0  0  0
  -33.8816   71.5814   27.5969 C   0  0  0  0  0  0  0  0  0  0  0  0
  -34.3068   73.0183   27.3075 C   0  0  0  0  0  0  0  0  0  0  0  0
  -33.0365   71.0200   26.4578 C   0  0  0  0  0  0  0  0  0  0  0  0
  -35.6316   70.7392   26.9510 H   0  0  0  0  0  0  0  0  0  0  0  0
  -35.6408   71.1254   28.5327 H   0  0  0  0  0  0  0  0  0  0  0  0
  1  2  1  0  0  0
  1  5  1  0  0  0
  1  6  1  0  0  0
  2  3  1  0  0  0
  2  4  1  0  0  0
M  END
> <minimizedAffinity>
-2.19978

$$$$
6363


  6  5  0  0  0  0  0  0  0  0999 V2000
  -38.8742   63.4934   31.4282 N   0  0  0  0  0  0  0  0  0  0  0  0
  -40.0679   64.0885   32.0275 C   0  0  0  0  0  0  0  0  0  0  0  0
  -40.8051   63.0557   32.8755 C   0  0  0  0  0  0  0  0  0  0  0  0
  -40.9692   64.6374   30.9261 C   0  0  0  0  0  0  0  0  0  0  0  0
  -39.1407   62.7129   30.8287 H   0  0  0  0  0  0  0  0  0  0  0  0
  -38.2851   63.0971   32.1597 H   0  0  0  0  0  0  0  0  0  0  0  0
  1  2  1  0  0  0
  1  5  1  0  0  0
  1  6  1  0  0  0
  2  3  1  0  0  0
  2  4  1  0  0  0
M  END
> <minimizedAffinity>
-2.19969

$$$$
6363


  6  5  0  0  0  0  0  0  0  0999 V2000
  -38.8787   69.7071   28.6847 N   0  0  0  0  0  0  0  0  0  0  0  0
  -37.6690   68.9137   28.8972 C   0  0  0  0  0  0  0  0  0  0  0  0
  -38.0307   67.5299   29.4296 C   0  0  0  0  0  0  0  0  0  0  0  0
  -36.7435   69.6475   29.8625 C   0  0  0  0  0  0  0  0  0  0  0  0
  -39.3778   69.8197   29.5666 H   0  0  0  0  0  0  0  0  0  0  0  0
  -39.5133   69.2045   28.0652 H   0  0  0  0  0  0  0  0  0  0  0  0
  1  2  1  0  0  0
  1  5  1  0  0  0
  1  6  1  0  0  0
  2  3  1  0  0  0
  2  4  1  0  0  0
M  END
> <minimizedAffinity>
-2.19448

$$$$
6363


  6  5  0  0  0  0  0  0  0  0999 V2000
  -37.2072   62.5868   33.2464 N   0  0  0  0  0  0  0  0  0  0  0  0
  -38.0566   63.1555   32.2007 C   0  0  0  0  0  0  0  0  0  0  0  0
  -37.6342   64.5905   31.8983 C   0  0  0  0  0  0  0  0  0  0  0  0
  -39.5153   63.0951   32.6426 C   0  0  0  0  0  0  0  0  0  0  0  0
  -37.2950   63.1369   34.1003 H   0  0  0  0  0  0  0  0  0  0  0  0
  -36.2291   62.6550   32.9677 H   0  0  0  0  0  0  0  0  0  0  0  0
  1  2  1  0  0  0
  1  5  1  0  0  0
  1  6  1  0  0  0
  2  3  1  0  0  0
  2  4  1  0  0  0
M  END
> <minimizedAffinity>
-2.17095

$$$$
6363


  6  5  0  0  0  0  0  0  0  0999 V2000
  -34.8723   70.8359   27.5910 N   0  0  0  0  0  0  0  0  0  0  0  0
  -33.5037   71.3430   27.5016 C   0  0  0  0  0  0  0  0  0  0  0  0
  -32.8150   70.7903   26.2569 C   0  0  0  0  0  0  0  0  0  0  0  0
  -32.7382   70.9640   28.7654 C   0  0  0  0  0  0  0  0  0  0  0  0
  -34.8606   69.8182   27.6524 H   0  0  0  0  0  0  0  0  0  0  0  0
  -35.3770   71.0597   26.7341 H   0  0  0  0  0  0  0  0  0  0  0  0
  1  2  1  0  0  0
  1  5  1  0  0  0
  1  6  1  0  0  0
  2  3  1  0  0  0
  2  4  1  0  0  0
M  END
> <minimizedAffinity>
-2.16593

$$$$
6363


  6  5  0  0  0  0  0  0  0  0999 V2000
  -33.3975   71.1899   38.4448 N   0  0  0  0  0  0  0  0  0  0  0  0
  -33.0351   72.3307   37.6049 C   0  0  0  0  0  0  0  0  0  0  0  0
  -31.7794   73.0085   38.1463 C   0  0  0  0  0  0  0  0  0  0  0  0
  -34.2037   73.3092   37.5455 C   0  0  0  0  0  0  0  0  0  0  0  0
  -33.5848   71.5064   39.3957 H   0  0  0  0  0  0  0  0  0  0  0  0
  -32.6071   70.5498   38.5125 H   0  0  0  0  0  0  0  0  0  0  0  0
  1  2  1  0  0  0
  1  5  1  0  0  0
  1  6  1  0  0  0
  2  3  1  0  0  0
  2  4  1  0  0  0
M  END
> <minimizedAffinity>
-2.16427

$$$$
6363


  6  5  0  0  0  0  0  0  0  0999 V2000
  -38.4257   67.6117   31.3942 N   0  0  0  0  0  0  0  0  0  0  0  0
  -38.3905   67.8470   29.9515 C   0  0  0  0  0  0  0  0  0  0  0  0
  -38.1123   66.5426   29.2095 C   0  0  0  0  0  0  0  0  0  0  0  0
  -37.3292   68.8954   29.6336 C   0  0  0  0  0  0  0  0  0  0  0  0
  -37.5266   67.2467   31.7071 H   0  0  0  0  0  0  0  0  0  0  0  0
  -39.1117   66.8882   31.6066 H   0  0  0  0  0  0  0  0  0  0  0  0
  1  2  1  0  0  0
  1  5  1  0  0  0
  1  6  1  0  0  0
  2  3  1  0  0  0
  2  4  1  0  0  0
M  END
> <minimizedAffinity>
-2.15911

$$$$
6363


  6  5  0  0  0  0  0  0  0  0999 V2000
  -38.5183   60.5667   33.1636 N   0  0  0  0  0  0  0  0  0  0  0  0
  -38.7085   60.7406   34.6030 C   0  0  0  0  0  0  0  0  0  0  0  0
  -40.0007   60.0635   35.0513 C   0  0  0  0  0  0  0  0  0  0  0  0
  -38.7253   62.2289   34.9368 C   0  0  0  0  0  0  0  0  0  0  0  0
  -39.2970   60.9885   32.6584 H   0  0  0  0  0  0  0  0  0  0  0  0
  -38.5388   59.5740   32.9330 H   0  0  0  0  0  0  0  0  0  0  0  0
  1  2  1  0  0  0
  1  5  1  0  0  0
  1  6  1  0  0  0
  2  3  1  0  0  0
  2  4  1  0  0  0
M  END
> <minimizedAffinity>
-2.13292

$$$$
6363


  6  5  0  0  0  0  0  0  0  0999 V2000
  -35.3880   69.3914   39.5578 N   0  0  0  0  0  0  0  0  0  0  0  0
  -34.4410   68.2869   39.7046 C   0  0  0  0  0  0  0  0  0  0  0  0
  -35.1335   66.9558   39.4257 C   0  0  0  0  0  0  0  0  0  0  0  0
  -33.8459   68.3115   41.1089 C   0  0  0  0  0  0  0  0  0  0  0  0
  -36.1545   69.2800   40.2208 H   0  0  0  0  0  0  0  0  0  0  0  0
  -35.8113   69.3586   38.6311 H   0  0  0  0  0  0  0  0  0  0  0  0
  1  2  1  0  0  0
  1  5  1  0  0  0
  1  6  1  0  0  0
  2  3  1  0  0  0
  2  4  1  0  0  0
M  END
> <minimizedAffinity>
-2.12720

$$$$
6363


  6  5  0  0  0  0  0  0  0  0999 V2000
  -32.2037   67.9576   42.3752 N   0  0  0  0  0  0  0  0  0  0  0  0
  -33.3622   68.5338   41.6940 C   0  0  0  0  0  0  0  0  0  0  0  0
  -33.8808   69.7447   42.4647 C   0  0  0  0  0  0  0  0  0  0  0  0
  -34.4466   67.4709   41.5491 C   0  0  0  0  0  0  0  0  0  0  0  0
  -32.4685   67.6558   43.3124 H   0  0  0  0  0  0  0  0  0  0  0  0
  -31.4898   68.6740   42.5022 H   0  0  0  0  0  0  0  0  0  0  0  0
  1  2  1  0  0  0
  1  5  1  0  0  0
  1  6  1  0  0  0
  2  3  1  0  0  0
  2  4  1  0  0  0
M  END
> <minimizedAffinity>
-2.12636

$$$$
6363


  6  5  0  0  0  0  0  0  0  0999 V2000
  -36.5063   70.0163   28.3636 N   0  0  0  0  0  0  0  0  0  0  0  0
  -35.9270   71.3584   28.3253 C   0  0  0  0  0  0  0  0  0  0  0  0
  -36.8181   72.2963   27.5158 C   0  0  0  0  0  0  0  0  0  0  0  0
  -34.5232   71.2888   27.7327 C   0  0  0  0  0  0  0  0  0  0  0  0
  -36.5882   69.6479   27.4164 H   0  0  0  0  0  0  0  0  0  0  0  0
  -37.4566   70.0639   28.7294 H   0  0  0  0  0  0  0  0  0  0  0  0
  1  2  1  0  0  0
  1  5  1  0  0  0
  1  6  1  0  0  0
  2  3  1  0  0  0
  2  4  1  0  0  0
M  END
> <minimizedAffinity>
-2.11620

$$$$
6363


  6  5  0  0  0  0  0  0  0  0999 V2000
  -42.8552   62.2515   34.8467 N   0  0  0  0  0  0  0  0  0  0  0  0
  -43.9142   61.3879   34.3262 C   0  0  0  0  0  0  0  0  0  0  0  0
  -44.7977   60.8885   35.4660 C   0  0  0  0  0  0  0  0  0  0  0  0
  -43.2907   60.2224   33.5650 C   0  0  0  0  0  0  0  0  0  0  0  0
  -42.2741   61.7294   35.5019 H   0  0  0  0  0  0  0  0  0  0  0  0
  -43.2678   63.0138   35.3832 H   0  0  0  0  0  0  0  0  0  0  0  0
  1  2  1  0  0  0
  1  5  1  0  0  0
  1  6  1  0  0  0
  2  3  1  0  0  0
  2  4  1  0  0  0
M  END
> <minimizedAffinity>
-2.11482

$$$$
6363


  6  5  0  0  0  0  0  0  0  0999 V2000
  -40.5568   71.7795   29.2013 N   0  0  0  0  0  0  0  0  0  0  0  0
  -39.7219   70.7358   28.6081 C   0  0  0  0  0  0  0  0  0  0  0  0
  -39.7010   69.5015   29.5055 C   0  0  0  0  0  0  0  0  0  0  0  0
  -38.3129   71.2769   28.3874 C   0  0  0  0  0  0  0  0  0  0  0  0
  -40.1819   72.0469   30.1109 H   0  0  0  0  0  0  0  0  0  0  0  0
  -41.4904   71.4111   29.3796 H   0  0  0  0  0  0  0  0  0  0  0  0
  1  2  1  0  0  0
  1  5  1  0  0  0
  1  6  1  0  0  0
  2  3  1  0  0  0
  2  4  1  0  0  0
M  END
> <minimizedAffinity>
-2.11345

$$$$
6363


  6  5  0  0  0  0  0  0  0  0999 V2000
  -37.2949   66.7633   39.2056 N   0  0  0  0  0  0  0  0  0  0  0  0
  -36.2081   67.6976   39.4960 C   0  0  0  0  0  0  0  0  0  0  0  0
  -34.8617   66.9832   39.4188 C   0  0  0  0  0  0  0  0  0  0  0  0
  -36.4232   68.3141   40.8746 C   0  0  0  0  0  0  0  0  0  0  0  0
  -37.2909   66.0055   39.8876 H   0  0  0  0  0  0  0  0  0  0  0  0
  -37.1370   66.3257   38.2986 H   0  0  0  0  0  0  0  0  0  0  0  0
  1  2  1  0  0  0
  1  5  1  0  0  0
  1  6  1  0  0  0
  2  3  1  0  0  0
  2  4  1  0  0  0
M  END
> <minimizedAffinity>
-2.10666

$$$$
6363


  6  5  0  0  0  0  0  0  0  0999 V2000
  -35.5977   70.5446   28.0758 N   0  0  0  0  0  0  0  0  0  0  0  0
  -35.5500   71.9525   27.6839 C   0  0  0  0  0  0  0  0  0  0  0  0
  -34.9999   72.8013   28.8268 C   0  0  0  0  0  0  0  0  0  0  0  0
  -36.9465   72.4151   27.2807 C   0  0  0  0  0  0  0  0  0  0  0  0
  -36.2070   70.4315   28.8854 H   0  0  0  0  0  0  0  0  0  0  0  0
  -34.6721   70.2413   28.3764 H   0  0  0  0  0  0  0  0  0  0  0  0
  1  2  1  0  0  0
  1  5  1  0  0  0
  1  6  1  0  0  0
  2  3  1  0  0  0
  2  4  1  0  0  0
M  END
> <minimizedAffinity>
-2.07652

$$$$
6363


  6  5  0  0  0  0  0  0  0  0999 V2000
  -33.9479   73.9044   28.4037 N   0  0  0  0  0  0  0  0  0  0  0  0
  -34.4242   73.1343   27.2555 C   0  0  0  0  0  0  0  0  0  0  0  0
  -35.8208   72.5837   27.5305 C   0  0  0  0  0  0  0  0  0  0  0  0
  -33.4402   72.0079   26.9561 C   0  0  0  0  0  0  0  0  0  0  0  0
  -33.9033   73.3052   29.2274 H   0  0  0  0  0  0  0  0  0  0  0  0
  -34.6196   74.6381   28.6262 H   0  0  0  0  0  0  0  0  0  0  0  0
  1  2  1  0  0  0
  1  5  1  0  0  0
  1  6  1  0  0  0
  2  3  1  0  0  0
  2  4  1  0  0  0
M  END
> <minimizedAffinity>
-2.06840

$$$$
6363


  6  5  0  0  0  0  0  0  0  0999 V2000
  -33.9736   70.8527   27.3251 N   0  0  0  0  0  0  0  0  0  0  0  0
  -35.2486   71.1217   27.9885 C   0  0  0  0  0  0  0  0  0  0  0  0
  -35.7218   72.5376   27.6709 C   0  0  0  0  0  0  0  0  0  0  0  0
  -35.0909   70.9210   29.4923 C   0  0  0  0  0  0  0  0  0  0  0  0
  -33.2676   71.5112   27.6528 H   0  0  0  0  0  0  0  0  0  0  0  0
  -34.0674   71.0172   26.3234 H   0  0  0  0  0  0  0  0  0  0  0  0
  1  2  1  0  0  0
  1  5  1  0  0  0
  1  6  1  0  0  0
  2  3  1  0  0  0
  2  4  1  0  0  0
M  END
> <minimizedAffinity>
-2.02436

$$$$
6363


  6  5  0  0  0  0  0  0  0  0999 V2000
  -32.4210   70.6517   30.4527 N   0  0  0  0  0  0  0  0  0  0  0  0
  -32.3469   70.9793   29.0295 C   0  0  0  0  0  0  0  0  0  0  0  0
  -33.7450   70.9994   28.4179 C   0  0  0  0  0  0  0  0  0  0  0  0
  -31.4533   69.9662   28.3211 C   0  0  0  0  0  0  0  0  0  0  0  0
  -32.8408   69.7305   30.5741 H   0  0  0  0  0  0  0  0  0  0  0  0
  -33.0431   71.3080   30.9232 H   0  0  0  0  0  0  0  0  0  0  0  0
  1  2  1  0  0  0
  1  5  1  0  0  0
  1  6  1  0  0  0
  2  3  1  0  0  0
  2  4  1  0  0  0
M  END
> <minimizedAffinity>
-2.02032

$$$$
6363


  6  5  0  0  0  0  0  0  0  0999 V2000
  -38.3968   65.9818   32.2198 N   0  0  0  0  0  0  0  0  0  0  0  0
  -39.5119   66.9215   32.3271 C   0  0  0  0  0  0  0  0  0  0  0  0
  -40.5048   66.6962   31.1901 C   0  0  0  0  0  0  0  0  0  0  0  0
  -38.9760   68.3495   32.3118 C   0  0  0  0  0  0  0  0  0  0  0  0
  -37.9115   66.1208   31.3340 H   0  0  0  0  0  0  0  0  0  0  0  0
  -38.7542   65.0274   32.1975 H   0  0  0  0  0  0  0  0  0  0  0  0
  1  2  1  0  0  0
  1  5  1  0  0  0
  1  6  1  0  0  0
  2  3  1  0  0  0
  2  4  1  0  0  0
M  END
> <minimizedAffinity>
-2.00513

$$$$
6363


  6  5  0  0  0  0  0  0  0  0999 V2000
  -37.0123   70.1113   31.7518 N   0  0  0  0  0  0  0  0  0  0  0  0
  -36.4128   70.0164   30.4215 C   0  0  0  0  0  0  0  0  0  0  0  0
  -36.3311   71.3980   29.7784 C   0  0  0  0  0  0  0  0  0  0  0  0
  -37.2328   69.0595   29.5620 C   0  0  0  0  0  0  0  0  0  0  0  0
  -37.9558   70.4911   31.6796 H   0  0  0  0  0  0  0  0  0  0  0  0
  -36.4852   70.7747   32.3184 H   0  0  0  0  0  0  0  0  0  0  0  0
  1  2  1  0  0  0
  1  5  1  0  0  0
  1  6  1  0  0  0
  2  3  1  0  0  0
  2  4  1  0  0  0
M  END
> <minimizedAffinity>
-1.99922

$$$$
6363


  6  5  0  0  0  0  0  0  0  0999 V2000
  -39.7473   68.3553   30.3037 N   0  0  0  0  0  0  0  0  0  0  0  0
  -39.0257   69.4361   29.6334 C   0  0  0  0  0  0  0  0  0  0  0  0
  -39.9360   70.1359   28.6279 C   0  0  0  0  0  0  0  0  0  0  0  0
  -37.7854   68.8706   28.9489 C   0  0  0  0  0  0  0  0  0  0  0  0
  -40.0586   67.6693   29.6166 H   0  0  0  0  0  0  0  0  0  0  0  0
  -40.5938   68.7247   30.7350 H   0  0  0  0  0  0  0  0  0  0  0  0
  1  2  1  0  0  0
  1  5  1  0  0  0
  1  6  1  0  0  0
  2  3  1  0  0  0
  2  4  1  0  0  0
M  END
> <minimizedAffinity>
-1.99385

$$$$
6363


  6  5  0  0  0  0  0  0  0  0999 V2000
  -40.3545   66.9693   31.0702 N   0  0  0  0  0  0  0  0  0  0  0  0
  -39.7984   65.6777   30.6695 C   0  0  0  0  0  0  0  0  0  0  0  0
  -40.7828   64.5560   30.9888 C   0  0  0  0  0  0  0  0  0  0  0  0
  -38.4663   65.4562   31.3789 C   0  0  0  0  0  0  0  0  0  0  0  0
  -40.5342   66.9721   32.0738 H   0  0  0  0  0  0  0  0  0  0  0  0
  -41.2601   67.1059   30.6225 H   0  0  0  0  0  0  0  0  0  0  0  0
  1  2  1  0  0  0
  1  5  1  0  0  0
  1  6  1  0  0  0
  2  3  1  0  0  0
  2  4  1  0  0  0
M  END
> <minimizedAffinity>
-1.98184

$$$$
6363


  6  5  0  0  0  0  0  0  0  0999 V2000
  -31.8509   69.8604   26.8071 N   0  0  0  0  0  0  0  0  0  0  0  0
  -32.5773   71.0301   26.3149 C   0  0  0  0  0  0  0  0  0  0  0  0
  -31.6579   72.2478   26.2806 C   0  0  0  0  0  0  0  0  0  0  0  0
  -33.7912   71.2848   27.2029 C   0  0  0  0  0  0  0  0  0  0  0  0
  -31.5115   70.0366   27.7523 H   0  0  0  0  0  0  0  0  0  0  0  0
  -31.0213   69.7068   26.2350 H   0  0  0  0  0  0  0  0  0  0  0  0
  1  2  1  0  0  0
  1  5  1  0  0  0
  1  6  1  0  0  0
  2  3  1  0  0  0
  2  4  1  0  0  0
M  END
> <minimizedAffinity>
-1.96726

$$$$
6363


  6  5  0  0  0  0  0  0  0  0999 V2000
  -39.9415   62.3726   33.0876 N   0  0  0  0  0  0  0  0  0  0  0  0
  -38.5324   62.3927   33.4776 C   0  0  0  0  0  0  0  0  0  0  0  0
  -37.7129   61.5046   32.5454 C   0  0  0  0  0  0  0  0  0  0  0  0
  -38.4000   61.9354   34.9268 C   0  0  0  0  0  0  0  0  0  0  0  0
  -40.3030   61.4211   33.1462 H   0  0  0  0  0  0  0  0  0  0  0  0
  -40.0301   62.6470   32.1098 H   0  0  0  0  0  0  0  0  0  0  0  0
  1  2  1  0  0  0
  1  5  1  0  0  0
  1  6  1  0  0  0
  2  3  1  0  0  0
  2  4  1  0  0  0
M  END
> <minimizedAffinity>
-1.95497

$$$$
6363


  6  5  0  0  0  0  0  0  0  0999 V2000
  -33.8517   73.4811   37.1930 N   0  0  0  0  0  0  0  0  0  0  0  0
  -32.9939   72.3982   37.6723 C   0  0  0  0  0  0  0  0  0  0  0  0
  -33.5301   71.8418   38.9884 C   0  0  0  0  0  0  0  0  0  0  0  0
  -31.5680   72.9145   37.8360 C   0  0  0  0  0  0  0  0  0  0  0  0
  -33.8724   74.2352   37.8788 H   0  0  0  0  0  0  0  0  0  0  0  0
  -34.8117   73.1477   37.1132 H   0  0  0  0  0  0  0  0  0  0  0  0
  1  2  1  0  0  0
  1  5  1  0  0  0
  1  6  1  0  0  0
  2  3  1  0  0  0
  2  4  1  0  0  0
M  END
> <minimizedAffinity>
-1.94084

$$$$
6363


  6  5  0  0  0  0  0  0  0  0999 V2000
  -46.7246   58.0770   39.8679 N   0  0  0  0  0  0  0  0  0  0  0  0
  -47.7260   58.8698   39.1559 C   0  0  0  0  0  0  0  0  0  0  0  0
  -48.6587   57.9567   38.3649 C   0  0  0  0  0  0  0  0  0  0  0  0
  -47.0257   59.8661   38.2374 C   0  0  0  0  0  0  0  0  0  0  0  0
  -46.1672   57.5442   39.2009 H   0  0  0  0  0  0  0  0  0  0  0  0
  -47.1896   57.3885   40.4585 H   0  0  0  0  0  0  0  0  0  0  0  0
  1  2  1  0  0  0
  1  5  1  0  0  0
  1  6  1  0  0  0
  2  3  1  0  0  0
  2  4  1  0  0  0
M  END
> <minimizedAffinity>
-1.91754

$$$$
6363


  6  5  0  0  0  0  0  0  0  0999 V2000
  -39.8100   62.1549   33.3203 N   0  0  0  0  0  0  0  0  0  0  0  0
  -39.1331   63.2065   32.5626 C   0  0  0  0  0  0  0  0  0  0  0  0
  -40.1130   63.8870   31.6108 C   0  0  0  0  0  0  0  0  0  0  0  0
  -37.9563   62.6057   31.8003 C   0  0  0  0  0  0  0  0  0  0  0  0
  -40.1813   61.4526   32.6812 H   0  0  0  0  0  0  0  0  0  0  0  0
  -40.6161   62.5473   33.8054 H   0  0  0  0  0  0  0  0  0  0  0  0
  1  2  1  0  0  0
  1  5  1  0  0  0
  1  6  1  0  0  0
  2  3  1  0  0  0
  2  4  1  0  0  0
M  END
> <minimizedAffinity>
-1.90850

$$$$
6363


  6  5  0  0  0  0  0  0  0  0999 V2000
  -37.6056   72.4049   29.2358 N   0  0  0  0  0  0  0  0  0  0  0  0
  -37.3263   72.2501   27.8088 C   0  0  0  0  0  0  0  0  0  0  0  0
  -37.7868   70.8777   27.3255 C   0  0  0  0  0  0  0  0  0  0  0  0
  -35.8345   72.4470   27.5590 C   0  0  0  0  0  0  0  0  0  0  0  0
  -37.1063   71.6909   29.7652 H   0  0  0  0  0  0  0  0  0  0  0  0
  -38.5966   72.2422   29.4103 H   0  0  0  0  0  0  0  0  0  0  0  0
  1  2  1  0  0  0
  1  5  1  0  0  0
  1  6  1  0  0  0
  2  3  1  0  0  0
  2  4  1  0  0  0
M  END
> <minimizedAffinity>
-1.90694

$$$$
6363


  6  5  0  0  0  0  0  0  0  0999 V2000
  -35.6001   72.6150   29.3102 N   0  0  0  0  0  0  0  0  0  0  0  0
  -35.5067   72.4127   27.8650 C   0  0  0  0  0  0  0  0  0  0  0  0
  -34.5607   73.4388   27.2473 C   0  0  0  0  0  0  0  0  0  0  0  0
  -36.8983   72.5090   27.2478 C   0  0  0  0  0  0  0  0  0  0  0  0
  -35.9617   73.5480   29.5061 H   0  0  0  0  0  0  0  0  0  0  0  0
  -34.6678   72.5832   29.7213 H   0  0  0  0  0  0  0  0  0  0  0  0
  1  2  1  0  0  0
  1  5  1  0  0  0
  1  6  1  0  0  0
  2  3  1  0  0  0
  2  4  1  0  0  0
M  END
> <minimizedAffinity>
-1.90572

$$$$
6363


  6  5  0  0  0  0  0  0  0  0999 V2000
  -31.1175   72.1884   27.5192 N   0  0  0  0  0  0  0  0  0  0  0  0
  -31.2330   70.8292   26.9925 C   0  0  0  0  0  0  0  0  0  0  0  0
  -32.6064   70.6220   26.3599 C   0  0  0  0  0  0  0  0  0  0  0  0
  -30.9904   69.8267   28.1163 C   0  0  0  0  0  0  0  0  0  0  0  0
  -31.8293   72.3445   28.2323 H   0  0  0  0  0  0  0  0  0  0  0  0
  -31.3108   72.8605   26.7777 H   0  0  0  0  0  0  0  0  0  0  0  0
  1  2  1  0  0  0
  1  5  1  0  0  0
  1  6  1  0  0  0
  2  3  1  0  0  0
  2  4  1  0  0  0
M  END
> <minimizedAffinity>
-1.89241

$$$$
6363


  6  5  0  0  0  0  0  0  0  0999 V2000
  -46.9969   60.2601   37.0500 N   0  0  0  0  0  0  0  0  0  0  0  0
  -47.9293   60.2141   35.9246 C   0  0  0  0  0  0  0  0  0  0  0  0
  -48.6100   61.5683   35.7459 C   0  0  0  0  0  0  0  0  0  0  0  0
  -48.9565   59.1114   36.1609 C   0  0  0  0  0  0  0  0  0  0  0  0
  -47.5006   60.4849   37.9074 H   0  0  0  0  0  0  0  0  0  0  0  0
  -46.3286   61.0170   36.9102 H   0  0  0  0  0  0  0  0  0  0  0  0
  1  2  1  0  0  0
  1  5  1  0  0  0
  1  6  1  0  0  0
  2  3  1  0  0  0
  2  4  1  0  0  0
M  END
> <minimizedAffinity>
-1.88787

$$$$
6363


  6  5  0  0  0  0  0  0  0  0999 V2000
  -41.3966   65.7215   32.9415 N   0  0  0  0  0  0  0  0  0  0  0  0
  -40.5226   65.6408   31.7720 C   0  0  0  0  0  0  0  0  0  0  0  0
  -40.5565   66.9539   30.9948 C   0  0  0  0  0  0  0  0  0  0  0  0
  -40.9569   64.4723   30.8930 C   0  0  0  0  0  0  0  0  0  0  0  0
  -42.3561   65.8973   32.6447 H   0  0  0  0  0  0  0  0  0  0  0  0
  -41.1290   66.5209   33.5145 H   0  0  0  0  0  0  0  0  0  0  0  0
  1  2  1  0  0  0
  1  5  1  0  0  0
  1  6  1  0  0  0
  2  3  1  0  0  0
  2  4  1  0  0  0
M  END
> <minimizedAffinity>
-1.88562

$$$$
6363


  6  5  0  0  0  0  0  0  0  0999 V2000
  -35.3338   73.2211   31.2862 N   0  0  0  0  0  0  0  0  0  0  0  0
  -36.6560   72.7451   31.6905 C   0  0  0  0  0  0  0  0  0  0  0  0
  -37.6115   72.7634   30.5006 C   0  0  0  0  0  0  0  0  0  0  0  0
  -37.1820   73.6132   32.8292 C   0  0  0  0  0  0  0  0  0  0  0  0
  -35.4017   74.1778   30.9401 H   0  0  0  0  0  0  0  0  0  0  0  0
  -34.9935   72.6631   30.5040 H   0  0  0  0  0  0  0  0  0  0  0  0
  1  2  1  0  0  0
  1  5  1  0  0  0
  1  6  1  0  0  0
  2  3  1  0  0  0
  2  4  1  0  0  0
M  END
> <minimizedAffinity>
-1.87862

$$$$
6363


  6  5  0  0  0  0  0  0  0  0999 V2000
  -33.7060   68.3075   40.6736 N   0  0  0  0  0  0  0  0  0  0  0  0
  -35.0581   68.2800   40.1175 C   0  0  0  0  0  0  0  0  0  0  0  0
  -36.0916   68.4093   41.2331 C   0  0  0  0  0  0  0  0  0  0  0  0
  -35.2581   66.9876   39.3323 C   0  0  0  0  0  0  0  0  0  0  0  0
  -33.5826   67.5297   41.3211 H   0  0  0  0  0  0  0  0  0  0  0  0
  -33.5800   69.1551   41.2257 H   0  0  0  0  0  0  0  0  0  0  0  0
  1  2  1  0  0  0
  1  5  1  0  0  0
  1  6  1  0  0  0
  2  3  1  0  0  0
  2  4  1  0  0  0
M  END
> <minimizedAffinity>
-1.87142

$$$$
6363


  6  5  0  0  0  0  0  0  0  0999 V2000
  -48.8898   57.5989   37.4142 N   0  0  0  0  0  0  0  0  0  0  0  0
  -48.6508   59.0387   37.5046 C   0  0  0  0  0  0  0  0  0  0  0  0
  -48.4214   59.6250   36.1143 C   0  0  0  0  0  0  0  0  0  0  0  0
  -47.4536   59.2986   38.4133 C   0  0  0  0  0  0  0  0  0  0  0  0
  -48.0802   57.1394   36.9986 H   0  0  0  0  0  0  0  0  0  0  0  0
  -49.6693   57.4203   36.7821 H   0  0  0  0  0  0  0  0  0  0  0  0
  1  2  1  0  0  0
  1  5  1  0  0  0
  1  6  1  0  0  0
  2  3  1  0  0  0
  2  4  1  0  0  0
M  END
> <minimizedAffinity>
-1.86503

$$$$
6363


  6  5  0  0  0  0  0  0  0  0999 V2000
  -37.6047   71.4705   32.3019 N   0  0  0  0  0  0  0  0  0  0  0  0
  -36.6719   71.8648   31.2470 C   0  0  0  0  0  0  0  0  0  0  0  0
  -37.4291   72.4854   30.0763 C   0  0  0  0  0  0  0  0  0  0  0  0
  -35.8697   70.6478   30.7974 C   0  0  0  0  0  0  0  0  0  0  0  0
  -38.2638   70.7814   31.9408 H   0  0  0  0  0  0  0  0  0  0  0  0
  -38.1647   72.2748   32.5820 H   0  0  0  0  0  0  0  0  0  0  0  0
  1  2  1  0  0  0
  1  5  1  0  0  0
  1  6  1  0  0  0
  2  3  1  0  0  0
  2  4  1  0  0  0
M  END
> <minimizedAffinity>
-1.85439

$$$$
6363


  6  5  0  0  0  0  0  0  0  0999 V2000
  -31.7741   72.8031   27.0473 N   0  0  0  0  0  0  0  0  0  0  0  0
  -32.9353   72.1270   26.4704 C   0  0  0  0  0  0  0  0  0  0  0  0
  -34.1842   72.4235   27.2960 C   0  0  0  0  0  0  0  0  0  0  0  0
  -32.6672   70.6270   26.4015 C   0  0  0  0  0  0  0  0  0  0  0  0
  -31.6190   72.4723   27.9992 H   0  0  0  0  0  0  0  0  0  0  0  0
  -31.9627   73.8018   27.1244 H   0  0  0  0  0  0  0  0  0  0  0  0
  1  2  1  0  0  0
  1  5  1  0  0  0
  1  6  1  0  0  0
  2  3  1  0  0  0
  2  4  1  0  0  0
M  END
> <minimizedAffinity>
-1.84507

$$$$
6363


  6  5  0  0  0  0  0  0  0  0999 V2000
  -37.7397   69.5486   32.0678 N   0  0  0  0  0  0  0  0  0  0  0  0
  -38.5822   68.4049   31.7210 C   0  0  0  0  0  0  0  0  0  0  0  0
  -39.2631   68.6383   30.3752 C   0  0  0  0  0  0  0  0  0  0  0  0
  -39.6113   68.1792   32.8241 C   0  0  0  0  0  0  0  0  0  0  0  0
  -38.3106   70.3907   32.1355 H   0  0  0  0  0  0  0  0  0  0  0  0
  -37.0717   69.7218   31.3175 H   0  0  0  0  0  0  0  0  0  0  0  0
  1  2  1  0  0  0
  1  5  1  0  0  0
  1  6  1  0  0  0
  2  3  1  0  0  0
  2  4  1  0  0  0
M  END
> <minimizedAffinity>
-1.84457

$$$$
6363


  6  5  0  0  0  0  0  0  0  0999 V2000
  -34.5193   70.9730   27.3321 N   0  0  0  0  0  0  0  0  0  0  0  0
  -33.6831   71.9036   28.0891 C   0  0  0  0  0  0  0  0  0  0  0  0
  -33.2043   71.2517   29.3833 C   0  0  0  0  0  0  0  0  0  0  0  0
  -34.4721   73.1771   28.3762 C   0  0  0  0  0  0  0  0  0  0  0  0
  -35.3356   70.7133   27.8851 H   0  0  0  0  0  0  0  0  0  0  0  0
  -34.0058   70.1082   27.1665 H   0  0  0  0  0  0  0  0  0  0  0  0
  1  2  1  0  0  0
  1  5  1  0  0  0
  1  6  1  0  0  0
  2  3  1  0  0  0
  2  4  1  0  0  0
M  END
> <minimizedAffinity>
-1.83931

$$$$
6363


  6  5  0  0  0  0  0  0  0  0999 V2000
  -36.0115   70.7802   31.2346 N   0  0  0  0  0  0  0  0  0  0  0  0
  -35.6705   72.1840   31.0080 C   0  0  0  0  0  0  0  0  0  0  0  0
  -36.5823   73.0894   31.8315 C   0  0  0  0  0  0  0  0  0  0  0  0
  -35.7830   72.5001   29.5200 C   0  0  0  0  0  0  0  0  0  0  0  0
  -36.9766   70.6092   30.9540 H   0  0  0  0  0  0  0  0  0  0  0  0
  -35.9684   70.5740   32.2320 H   0  0  0  0  0  0  0  0  0  0  0  0
  1  2  1  0  0  0
  1  5  1  0  0  0
  1  6  1  0  0  0
  2  3  1  0  0  0
  2  4  1  0  0  0
M  END
> <minimizedAffinity>
-1.83450

$$$$
6363


  6  5  0  0  0  0  0  0  0  0999 V2000
  -33.7824   73.9049   28.5472 N   0  0  0  0  0  0  0  0  0  0  0  0
  -33.7986   73.6057   29.9785 C   0  0  0  0  0  0  0  0  0  0  0  0
  -32.6122   72.7193   30.3471 C   0  0  0  0  0  0  0  0  0  0  0  0
  -35.1188   72.9334   30.3418 C   0  0  0  0  0  0  0  0  0  0  0  0
  -33.8464   73.0393   28.0123 H   0  0  0  0  0  0  0  0  0  0  0  0
  -32.8885   74.3251   28.2954 H   0  0  0  0  0  0  0  0  0  0  0  0
  1  2  1  0  0  0
  1  5  1  0  0  0
  1  6  1  0  0  0
  2  3  1  0  0  0
  2  4  1  0  0  0
M  END
> <minimizedAffinity>
-1.82682

$$$$
6363


  6  5  0  0  0  0  0  0  0  0999 V2000
  -39.4734   62.4900   33.2117 N   0  0  0  0  0  0  0  0  0  0  0  0
  -40.7840   63.0480   32.8816 C   0  0  0  0  0  0  0  0  0  0  0  0
  -40.6844   63.9357   31.6441 C   0  0  0  0  0  0  0  0  0  0  0  0
  -41.3181   63.8314   34.0765 C   0  0  0  0  0  0  0  0  0  0  0  0
  -38.8155   63.2442   33.4064 H   0  0  0  0  0  0  0  0  0  0  0  0
  -39.0995   61.9929   32.4041 H   0  0  0  0  0  0  0  0  0  0  0  0
  1  2  1  0  0  0
  1  5  1  0  0  0
  1  6  1  0  0  0
  2  3  1  0  0  0
  2  4  1  0  0  0
M  END
> <minimizedAffinity>
-1.81466

$$$$
6363


  6  5  0  0  0  0  0  0  0  0999 V2000
  -36.3930   70.7718   31.3867 N   0  0  0  0  0  0  0  0  0  0  0  0
  -37.2166   71.9633   31.1865 C   0  0  0  0  0  0  0  0  0  0  0  0
  -37.3717   72.2549   29.6965 C   0  0  0  0  0  0  0  0  0  0  0  0
  -36.5841   73.1458   31.9134 C   0  0  0  0  0  0  0  0  0  0  0  0
  -35.4666   70.9207   30.9878 H   0  0  0  0  0  0  0  0  0  0  0  0
  -36.7959   69.9872   30.8756 H   0  0  0  0  0  0  0  0  0  0  0  0
  1  2  1  0  0  0
  1  5  1  0  0  0
  1  6  1  0  0  0
  2  3  1  0  0  0
  2  4  1  0  0  0
M  END
> <minimizedAffinity>
-1.78653

$$$$
6363


  6  5  0  0  0  0  0  0  0  0999 V2000
  -32.7068   70.6180   27.1353 N   0  0  0  0  0  0  0  0  0  0  0  0
  -31.9367   70.9337   28.3376 C   0  0  0  0  0  0  0  0  0  0  0  0
  -30.9609   69.8032   28.6527 C   0  0  0  0  0  0  0  0  0  0  0  0
  -32.8908   71.1749   29.5030 C   0  0  0  0  0  0  0  0  0  0  0  0
  -33.2400   69.7613   27.2812 H   0  0  0  0  0  0  0  0  0  0  0  0
  -32.0710   70.4248   26.3623 H   0  0  0  0  0  0  0  0  0  0  0  0
  1  2  1  0  0  0
  1  5  1  0  0  0
  1  6  1  0  0  0
  2  3  1  0  0  0
  2  4  1  0  0  0
M  END
> <minimizedAffinity>
-1.78482

$$$$
6363


  6  5  0  0  0  0  0  0  0  0999 V2000
  -46.9257   57.3269   40.3715 N   0  0  0  0  0  0  0  0  0  0  0  0
  -48.3627   57.4430   40.1269 C   0  0  0  0  0  0  0  0  0  0  0  0
  -48.6228   57.8155   38.6699 C   0  0  0  0  0  0  0  0  0  0  0  0
  -48.9564   58.4822   41.0726 C   0  0  0  0  0  0  0  0  0  0  0  0
  -46.4690   58.2178   40.1785 H   0  0  0  0  0  0  0  0  0  0  0  0
  -46.5204   56.6566   39.7192 H   0  0  0  0  0  0  0  0  0  0  0  0
  1  2  1  0  0  0
  1  5  1  0  0  0
  1  6  1  0  0  0
  2  3  1  0  0  0
  2  4  1  0  0  0
M  END
> <minimizedAffinity>
-1.77866

$$$$
6363


  6  5  0  0  0  0  0  0  0  0999 V2000
  -41.6597   73.3169   29.8718 N   0  0  0  0  0  0  0  0  0  0  0  0
  -40.5809   72.6558   30.6048 C   0  0  0  0  0  0  0  0  0  0  0  0
  -39.9856   73.6055   31.6405 C   0  0  0  0  0  0  0  0  0  0  0  0
  -39.5162   72.1799   29.6216 C   0  0  0  0  0  0  0  0  0  0  0  0
  -41.2965   74.1375   29.3877 H   0  0  0  0  0  0  0  0  0  0  0  0
  -42.3573   73.6644   30.5288 H   0  0  0  0  0  0  0  0  0  0  0  0
  1  2  1  0  0  0
  1  5  1  0  0  0
  1  6  1  0  0  0
  2  3  1  0  0  0
  2  4  1  0  0  0
M  END
> <minimizedAffinity>
-1.76836

$$$$
6363


  6  5  0  0  0  0  0  0  0  0999 V2000
  -34.9180   72.9340   29.6688 N   0  0  0  0  0  0  0  0  0  0  0  0
  -34.6573   71.4956   29.6312 C   0  0  0  0  0  0  0  0  0  0  0  0
  -35.0234   70.9273   28.2629 C   0  0  0  0  0  0  0  0  0  0  0  0
  -35.4471   70.8072   30.7397 C   0  0  0  0  0  0  0  0  0  0  0  0
  -35.9077   73.1106   29.4992 H   0  0  0  0  0  0  0  0  0  0  0  0
  -34.4166   73.3928   28.9091 H   0  0  0  0  0  0  0  0  0  0  0  0
  1  2  1  0  0  0
  1  5  1  0  0  0
  1  6  1  0  0  0
  2  3  1  0  0  0
  2  4  1  0  0  0
M  END
> <minimizedAffinity>
-1.76259

$$$$
6363


  6  5  0  0  0  0  0  0  0  0999 V2000
  -39.2551   70.1625   30.6544 N   0  0  0  0  0  0  0  0  0  0  0  0
  -39.1065   70.5939   29.2652 C   0  0  0  0  0  0  0  0  0  0  0  0
  -38.7534   72.0776   29.2070 C   0  0  0  0  0  0  0  0  0  0  0  0
  -40.3967   70.3074   28.5037 C   0  0  0  0  0  0  0  0  0  0  0  0
  -40.0029   70.6911   31.1026 H   0  0  0  0  0  0  0  0  0  0  0  0
  -38.4059   70.3820   31.1739 H   0  0  0  0  0  0  0  0  0  0  0  0
  1  2  1  0  0  0
  1  5  1  0  0  0
  1  6  1  0  0  0
  2  3  1  0  0  0
  2  4  1  0  0  0
M  END
> <minimizedAffinity>
-1.76245

$$$$
6363


  6  5  0  0  0  0  0  0  0  0999 V2000
  -48.8664   57.5708   37.5937 N   0  0  0  0  0  0  0  0  0  0  0  0
  -48.6028   58.1365   38.9161 C   0  0  0  0  0  0  0  0  0  0  0  0
  -47.4045   59.0799   38.8586 C   0  0  0  0  0  0  0  0  0  0  0  0
  -48.3637   57.0070   39.9131 C   0  0  0  0  0  0  0  0  0  0  0  0
  -48.0541   57.0435   37.2750 H   0  0  0  0  0  0  0  0  0  0  0  0
  -48.9948   58.3238   36.9186 H   0  0  0  0  0  0  0  0  0  0  0  0
  1  2  1  0  0  0
  1  5  1  0  0  0
  1  6  1  0  0  0
  2  3  1  0  0  0
  2  4  1  0  0  0
M  END
> <minimizedAffinity>
-1.75781

$$$$
6363


  6  5  0  0  0  0  0  0  0  0999 V2000
  -48.0441   60.9540   35.4653 N   0  0  0  0  0  0  0  0  0  0  0  0
  -46.8779   60.4426   36.1842 C   0  0  0  0  0  0  0  0  0  0  0  0
  -47.2470   60.1204   37.6296 C   0  0  0  0  0  0  0  0  0  0  0  0
  -45.7523   61.4702   36.1221 C   0  0  0  0  0  0  0  0  0  0  0  0
  -48.3789   61.8072   35.9119 H   0  0  0  0  0  0  0  0  0  0  0  0
  -48.8088   60.2833   35.5323 H   0  0  0  0  0  0  0  0  0  0  0  0
  1  2  1  0  0  0
  1  5  1  0  0  0
  1  6  1  0  0  0
  2  3  1  0  0  0
  2  4  1  0  0  0
M  END
> <minimizedAffinity>
-1.75486

$$$$
6363


  6  5  0  0  0  0  0  0  0  0999 V2000
  -41.3950   62.5279   35.9940 N   0  0  0  0  0  0  0  0  0  0  0  0
  -42.2503   62.6526   34.8145 C   0  0  0  0  0  0  0  0  0  0  0  0
  -43.4881   61.7723   34.9633 C   0  0  0  0  0  0  0  0  0  0  0  0
  -41.4555   62.2747   33.5686 C   0  0  0  0  0  0  0  0  0  0  0  0
  -41.0930   61.5600   36.1013 H   0  0  0  0  0  0  0  0  0  0  0  0
  -41.9324   62.7488   36.8315 H   0  0  0  0  0  0  0  0  0  0  0  0
  1  2  1  0  0  0
  1  5  1  0  0  0
  1  6  1  0  0  0
  2  3  1  0  0  0
  2  4  1  0  0  0
M  END
> <minimizedAffinity>
-1.73551

$$$$
6363


  6  5  0  0  0  0  0  0  0  0999 V2000
  -40.4487   66.9347   35.4941 N   0  0  0  0  0  0  0  0  0  0  0  0
  -41.1175   67.3214   34.2526 C   0  0  0  0  0  0  0  0  0  0  0  0
  -41.7758   66.1061   33.6056 C   0  0  0  0  0  0  0  0  0  0  0  0
  -40.1052   67.9634   33.3092 C   0  0  0  0  0  0  0  0  0  0  0  0
  -39.7270   66.2421   35.2968 H   0  0  0  0  0  0  0  0  0  0  0  0
  -41.1158   66.4763   36.1138 H   0  0  0  0  0  0  0  0  0  0  0  0
  1  2  1  0  0  0
  1  5  1  0  0  0
  1  6  1  0  0  0
  2  3  1  0  0  0
  2  4  1  0  0  0
M  END
> <minimizedAffinity>
-1.71305

$$$$
6363


  6  5  0  0  0  0  0  0  0  0999 V2000
  -35.5569   68.2737   42.9906 N   0  0  0  0  0  0  0  0  0  0  0  0
  -34.3534   67.8288   42.2894 C   0  0  0  0  0  0  0  0  0  0  0  0
  -34.7116   67.3148   40.8977 C   0  0  0  0  0  0  0  0  0  0  0  0
  -33.6576   66.7478   43.1105 C   0  0  0  0  0  0  0  0  0  0  0  0
  -36.2068   67.4945   43.0906 H   0  0  0  0  0  0  0  0  0  0  0  0
  -36.0414   68.9731   42.4293 H   0  0  0  0  0  0  0  0  0  0  0  0
  1  2  1  0  0  0
  1  5  1  0  0  0
  1  6  1  0  0  0
  2  3  1  0  0  0
  2  4  1  0  0  0
M  END
> <minimizedAffinity>
-1.67342

$$$$
6363


  6  5  0  0  0  0  0  0  0  0999 V2000
  -37.4992   72.3091   28.2608 N   0  0  0  0  0  0  0  0  0  0  0  0
  -36.7025   71.6624   29.3025 C   0  0  0  0  0  0  0  0  0  0  0  0
  -35.7087   72.6542   29.9007 C   0  0  0  0  0  0  0  0  0  0  0  0
  -35.9830   70.4529   28.7141 C   0  0  0  0  0  0  0  0  0  0  0  0
  -36.8884   72.6443   27.5164 H   0  0  0  0  0  0  0  0  0  0  0  0
  -37.9559   73.1364   28.6430 H   0  0  0  0  0  0  0  0  0  0  0  0
  1  2  1  0  0  0
  1  5  1  0  0  0
  1  6  1  0  0  0
  2  3  1  0  0  0
  2  4  1  0  0  0
M  END
> <minimizedAffinity>
-1.66829

$$$$
6363


  6  5  0  0  0  0  0  0  0  0999 V2000
  -40.1488   67.6679   30.6731 N   0  0  0  0  0  0  0  0  0  0  0  0
  -38.7495   67.5378   31.0771 C   0  0  0  0  0  0  0  0  0  0  0  0
  -38.5060   66.1694   31.7075 C   0  0  0  0  0  0  0  0  0  0  0  0
  -38.3950   68.6595   32.0481 C   0  0  0  0  0  0  0  0  0  0  0  0
  -40.7542   67.5746   31.4881 H   0  0  0  0  0  0  0  0  0  0  0  0
  -40.3978   66.9012   30.0492 H   0  0  0  0  0  0  0  0  0  0  0  0
  1  2  1  0  0  0
  1  5  1  0  0  0
  1  6  1  0  0  0
  2  3  1  0  0  0
  2  4  1  0  0  0
M  END
> <minimizedAffinity>
-1.65444

$$$$
6363


  6  5  0  0  0  0  0  0  0  0999 V2000
  -42.6021   62.0050   35.0907 N   0  0  0  0  0  0  0  0  0  0  0  0
  -42.0076   61.3654   36.2636 C   0  0  0  0  0  0  0  0  0  0  0  0
  -41.8024   62.3889   37.3771 C   0  0  0  0  0  0  0  0  0  0  0  0
  -40.6869   60.7111   35.8706 C   0  0  0  0  0  0  0  0  0  0  0  0
  -41.9836   62.7386   34.7462 H   0  0  0  0  0  0  0  0  0  0  0  0
  -43.4689   62.4706   35.3570 H   0  0  0  0  0  0  0  0  0  0  0  0
  1  2  1  0  0  0
  1  5  1  0  0  0
  1  6  1  0  0  0
  2  3  1  0  0  0
  2  4  1  0  0  0
M  END
> <minimizedAffinity>
-1.65425

$$$$
6363


  6  5  0  0  0  0  0  0  0  0999 V2000
  -41.6467   62.8975   39.1292 N   0  0  0  0  0  0  0  0  0  0  0  0
  -41.1220   63.7222   40.2168 C   0  0  0  0  0  0  0  0  0  0  0  0
  -42.2630   64.2261   41.0963 C   0  0  0  0  0  0  0  0  0  0  0  0
  -40.3250   64.8846   39.6336 C   0  0  0  0  0  0  0  0  0  0  0  0
  -42.2810   63.4490   38.5522 H   0  0  0  0  0  0  0  0  0  0  0  0
  -42.2067   62.1380   39.5149 H   0  0  0  0  0  0  0  0  0  0  0  0
  1  2  1  0  0  0
  1  5  1  0  0  0
  1  6  1  0  0  0
  2  3  1  0  0  0
  2  4  1  0  0  0
M  END
> <minimizedAffinity>
-1.65209

$$$$
6363


  6  5  0  0  0  0  0  0  0  0999 V2000
  -31.0553   73.6509   39.0384 N   0  0  0  0  0  0  0  0  0  0  0  0
  -32.2453   72.8064   39.1328 C   0  0  0  0  0  0  0  0  0  0  0  0
  -32.7908   72.5036   37.7399 C   0  0  0  0  0  0  0  0  0  0  0  0
  -33.2951   73.5025   39.9931 C   0  0  0  0  0  0  0  0  0  0  0  0
  -31.2922   74.5327   38.5847 H   0  0  0  0  0  0  0  0  0  0  0  0
  -30.3642   73.2028   38.4378 H   0  0  0  0  0  0  0  0  0  0  0  0
  1  2  1  0  0  0
  1  5  1  0  0  0
  1  6  1  0  0  0
  2  3  1  0  0  0
  2  4  1  0  0  0
M  END
> <minimizedAffinity>
-1.64441

$$$$
6363


  6  5  0  0  0  0  0  0  0  0999 V2000
  -38.4965   66.3368   39.3666 N   0  0  0  0  0  0  0  0  0  0  0  0
  -39.9503   66.2342   39.4855 C   0  0  0  0  0  0  0  0  0  0  0  0
  -40.4577   67.1619   40.5861 C   0  0  0  0  0  0  0  0  0  0  0  0
  -40.3356   64.7858   39.7687 C   0  0  0  0  0  0  0  0  0  0  0  0
  -38.0576   66.0661   40.2462 H   0  0  0  0  0  0  0  0  0  0  0  0
  -38.2335   67.3090   39.2093 H   0  0  0  0  0  0  0  0  0  0  0  0
  1  2  1  0  0  0
  1  5  1  0  0  0
  1  6  1  0  0  0
  2  3  1  0  0  0
  2  4  1  0  0  0
M  END
> <minimizedAffinity>
-1.64034

$$$$
6363


  6  5  0  0  0  0  0  0  0  0999 V2000
  -37.2280   72.9988   33.1174 N   0  0  0  0  0  0  0  0  0  0  0  0
  -38.3987   72.6296   32.3228 C   0  0  0  0  0  0  0  0  0  0  0  0
  -38.7336   71.1549   32.5282 C   0  0  0  0  0  0  0  0  0  0  0  0
  -38.1296   72.9308   30.8519 C   0  0  0  0  0  0  0  0  0  0  0  0
  -36.4246   72.4412   32.8292 H   0  0  0  0  0  0  0  0  0  0  0  0
  -37.3925   72.7690   34.0968 H   0  0  0  0  0  0  0  0  0  0  0  0
  1  2  1  0  0  0
  1  5  1  0  0  0
  1  6  1  0  0  0
  2  3  1  0  0  0
  2  4  1  0  0  0
M  END
> <minimizedAffinity>
-1.63727

$$$$
6363


  6  5  0  0  0  0  0  0  0  0999 V2000
  -32.8308   73.2663   28.7884 N   0  0  0  0  0  0  0  0  0  0  0  0
  -33.1081   72.7684   27.4418 C   0  0  0  0  0  0  0  0  0  0  0  0
  -32.9916   73.9004   26.4249 C   0  0  0  0  0  0  0  0  0  0  0  0
  -34.4987   72.1424   27.4081 C   0  0  0  0  0  0  0  0  0  0  0  0
  -33.5032   73.9925   29.0338 H   0  0  0  0  0  0  0  0  0  0  0  0
  -31.9152   73.7139   28.8062 H   0  0  0  0  0  0  0  0  0  0  0  0
  1  2  1  0  0  0
  1  5  1  0  0  0
  1  6  1  0  0  0
  2  3  1  0  0  0
  2  4  1  0  0  0
M  END
> <minimizedAffinity>
-1.62847

$$$$
6363


  6  5  0  0  0  0  0  0  0  0999 V2000
  -47.0937   62.2340   37.0379 N   0  0  0  0  0  0  0  0  0  0  0  0
  -46.7433   60.8764   36.6228 C   0  0  0  0  0  0  0  0  0  0  0  0
  -45.4921   60.8967   35.7491 C   0  0  0  0  0  0  0  0  0  0  0  0
  -47.9205   60.2528   35.8799 C   0  0  0  0  0  0  0  0  0  0  0  0
  -47.2813   62.8090   36.2171 H   0  0  0  0  0  0  0  0  0  0  0  0
  -46.2976   62.6649   37.5066 H   0  0  0  0  0  0  0  0  0  0  0  0
  1  2  1  0  0  0
  1  5  1  0  0  0
  1  6  1  0  0  0
  2  3  1  0  0  0
  2  4  1  0  0  0
M  END
> <minimizedAffinity>
-1.62745

$$$$
6363


  6  5  0  0  0  0  0  0  0  0999 V2000
  -39.1266   66.1054   38.4826 N   0  0  0  0  0  0  0  0  0  0  0  0
  -40.3670   65.3311   38.4830 C   0  0  0  0  0  0  0  0  0  0  0  0
  -41.5631   66.2482   38.2431 C   0  0  0  0  0  0  0  0  0  0  0  0
  -40.5023   64.5895   39.8091 C   0  0  0  0  0  0  0  0  0  0  0  0
  -39.1541   66.8028   39.2258 H   0  0  0  0  0  0  0  0  0  0  0  0
  -39.0491   66.6274   37.6105 H   0  0  0  0  0  0  0  0  0  0  0  0
  1  2  1  0  0  0
  1  5  1  0  0  0
  1  6  1  0  0  0
  2  3  1  0  0  0
  2  4  1  0  0  0
M  END
> <minimizedAffinity>
-1.57642

$$$$
