


  3  2  0  0  0  0  0  0  0  0999 V2000
  -35.5542   59.7333   40.7637 O   0  0  0  0  0  0  0  0  0  0  0  0
  -34.6633   59.8656   41.1709 H   0  0  0  0  0  0  0  0  0  0  0  0
  -36.2918   59.8454   41.4203 H   0  0  0  0  0  0  0  0  0  0  0  0
  1  2  1  0  0  0
  1  3  1  0  0  0
M  END
> <minimizedAffinity>
-1.87572

$$$$



  3  2  0  0  0  0  0  0  0  0999 V2000
  -33.5621   67.5115   35.9352 O   0  0  0  0  0  0  0  0  0  0  0  0
  -33.8212   66.6207   36.2764 H   0  0  0  0  0  0  0  0  0  0  0  0
  -34.3426   68.0363   35.6138 H   0  0  0  0  0  0  0  0  0  0  0  0
  1  2  1  0  0  0
  1  3  1  0  0  0
M  END
> <minimizedAffinity>
-1.49910

$$$$



  3  2  0  0  0  0  0  0  0  0999 V2000
  -32.6280   66.9757   37.1201 O   0  0  0  0  0  0  0  0  0  0  0  0
  -31.7371   67.1080   37.5273 H   0  0  0  0  0  0  0  0  0  0  0  0
  -33.3656   67.0879   37.7767 H   0  0  0  0  0  0  0  0  0  0  0  0
  1  2  1  0  0  0
  1  3  1  0  0  0
M  END
> <minimizedAffinity>
-1.39314

$$$$



  3  2  0  0  0  0  0  0  0  0999 V2000
  -47.0362   70.4407   27.7030 O   0  0  0  0  0  0  0  0  0  0  0  0
  -47.2953   69.5500   28.0442 H   0  0  0  0  0  0  0  0  0  0  0  0
  -47.8167   70.9655   27.3816 H   0  0  0  0  0  0  0  0  0  0  0  0
  1  2  1  0  0  0
  1  3  1  0  0  0
M  END
> <minimizedAffinity>
-1.30273

$$$$



  3  2  0  0  0  0  0  0  0  0999 V2000
  -48.9565   73.5341   27.2526 O   0  0  0  0  0  0  0  0  0  0  0  0
  -49.7859   73.6063   26.7200 H   0  0  0  0  0  0  0  0  0  0  0  0
  -48.4096   72.7443   26.9978 H   0  0  0  0  0  0  0  0  0  0  0  0
  1  2  1  0  0  0
  1  3  1  0  0  0
M  END
> <minimizedAffinity>
-1.25887

$$$$



  3  2  0  0  0  0  0  0  0  0999 V2000
  -45.2700   71.9143   25.3779 O   0  0  0  0  0  0  0  0  0  0  0  0
  -46.0995   71.9865   24.8453 H   0  0  0  0  0  0  0  0  0  0  0  0
  -44.7231   71.1245   25.1231 H   0  0  0  0  0  0  0  0  0  0  0  0
  1  2  1  0  0  0
  1  3  1  0  0  0
M  END
> <minimizedAffinity>
-1.25863

$$$$



  3  2  0  0  0  0  0  0  0  0999 V2000
  -33.5530   67.5545   36.9932 O   0  0  0  0  0  0  0  0  0  0  0  0
  -33.6410   68.1836   37.7505 H   0  0  0  0  0  0  0  0  0  0  0  0
  -32.6775   67.0841   36.9907 H   0  0  0  0  0  0  0  0  0  0  0  0
  1  2  1  0  0  0
  1  3  1  0  0  0
M  END
> <minimizedAffinity>
-1.16501

$$$$



  3  2  0  0  0  0  0  0  0  0999 V2000
  -31.6296   72.1943   36.6272 O   0  0  0  0  0  0  0  0  0  0  0  0
  -31.8887   71.3036   36.9684 H   0  0  0  0  0  0  0  0  0  0  0  0
  -32.4100   72.7191   36.3058 H   0  0  0  0  0  0  0  0  0  0  0  0
  1  2  1  0  0  0
  1  3  1  0  0  0
M  END
> <minimizedAffinity>
-1.08444

$$$$



  3  2  0  0  0  0  0  0  0  0999 V2000
  -41.7508   70.2179   28.0458 O   0  0  0  0  0  0  0  0  0  0  0  0
  -42.5373   70.7732   28.2693 H   0  0  0  0  0  0  0  0  0  0  0  0
  -41.1109   70.6892   27.4490 H   0  0  0  0  0  0  0  0  0  0  0  0
  1  2  1  0  0  0
  1  3  1  0  0  0
M  END
> <minimizedAffinity>
-1.06066

$$$$



  3  2  0  0  0  0  0  0  0  0999 V2000
  -34.3179   60.0263   25.3548 O   0  0  0  0  0  0  0  0  0  0  0  0
  -35.1810   60.4370   25.1031 H   0  0  0  0  0  0  0  0  0  0  0  0
  -34.0826   59.2532   24.7763 H   0  0  0  0  0  0  0  0  0  0  0  0
  1  2  1  0  0  0
  1  3  1  0  0  0
M  END
> <minimizedAffinity>
-1.05877

$$$$



  3  2  0  0  0  0  0  0  0  0999 V2000
  -32.3242   72.6958   31.6820 O   0  0  0  0  0  0  0  0  0  0  0  0
  -33.1537   72.7680   31.1493 H   0  0  0  0  0  0  0  0  0  0  0  0
  -31.7773   71.9060   31.4272 H   0  0  0  0  0  0  0  0  0  0  0  0
  1  2  1  0  0  0
  1  3  1  0  0  0
M  END
> <minimizedAffinity>
-1.05828

$$$$



  3  2  0  0  0  0  0  0  0  0999 V2000
  -35.8494   63.6867   30.4233 O   0  0  0  0  0  0  0  0  0  0  0  0
  -36.7125   64.0974   30.1716 H   0  0  0  0  0  0  0  0  0  0  0  0
  -35.6142   62.9136   29.8448 H   0  0  0  0  0  0  0  0  0  0  0  0
  1  2  1  0  0  0
  1  3  1  0  0  0
M  END
> <minimizedAffinity>
-1.05754

$$$$



  3  2  0  0  0  0  0  0  0  0999 V2000
  -37.6201   65.9808   28.7626 O   0  0  0  0  0  0  0  0  0  0  0  0
  -38.4832   66.3915   28.5108 H   0  0  0  0  0  0  0  0  0  0  0  0
  -37.3848   65.2076   28.1840 H   0  0  0  0  0  0  0  0  0  0  0  0
  1  2  1  0  0  0
  1  3  1  0  0  0
M  END
> <minimizedAffinity>
-1.04340

$$$$



  3  2  0  0  0  0  0  0  0  0999 V2000
  -44.8539   71.9111   27.8950 O   0  0  0  0  0  0  0  0  0  0  0  0
  -45.6833   71.9833   27.3623 H   0  0  0  0  0  0  0  0  0  0  0  0
  -44.3070   71.1213   27.6402 H   0  0  0  0  0  0  0  0  0  0  0  0
  1  2  1  0  0  0
  1  3  1  0  0  0
M  END
> <minimizedAffinity>
-1.02826

$$$$



  3  2  0  0  0  0  0  0  0  0999 V2000
  -35.6500   64.0081   32.0463 O   0  0  0  0  0  0  0  0  0  0  0  0
  -36.5131   64.4188   31.7946 H   0  0  0  0  0  0  0  0  0  0  0  0
  -35.4147   63.2350   31.4678 H   0  0  0  0  0  0  0  0  0  0  0  0
  1  2  1  0  0  0
  1  3  1  0  0  0
M  END
> <minimizedAffinity>
-1.02212

$$$$



  3  2  0  0  0  0  0  0  0  0999 V2000
  -34.9775   67.3307   38.1196 O   0  0  0  0  0  0  0  0  0  0  0  0
  -35.7250   67.9434   37.9129 H   0  0  0  0  0  0  0  0  0  0  0  0
  -34.4131   67.1391   37.3243 H   0  0  0  0  0  0  0  0  0  0  0  0
  1  2  1  0  0  0
  1  3  1  0  0  0
M  END
> <minimizedAffinity>
-0.99562

$$$$



  3  2  0  0  0  0  0  0  0  0999 V2000
  -43.9377   60.0591   33.2412 O   0  0  0  0  0  0  0  0  0  0  0  0
  -44.8008   60.4698   32.9895 H   0  0  0  0  0  0  0  0  0  0  0  0
  -43.7024   59.2860   32.6626 H   0  0  0  0  0  0  0  0  0  0  0  0
  1  2  1  0  0  0
  1  3  1  0  0  0
M  END
> <minimizedAffinity>
-0.97666

$$$$



  3  2  0  0  0  0  0  0  0  0999 V2000
  -37.3711   61.9991   34.8277 O   0  0  0  0  0  0  0  0  0  0  0  0
  -38.2341   62.4098   34.5760 H   0  0  0  0  0  0  0  0  0  0  0  0
  -37.1358   61.2259   34.2491 H   0  0  0  0  0  0  0  0  0  0  0  0
  1  2  1  0  0  0
  1  3  1  0  0  0
M  END
> <minimizedAffinity>
-0.96130

$$$$



  3  2  0  0  0  0  0  0  0  0999 V2000
  -39.9615   60.2781   36.1487 O   0  0  0  0  0  0  0  0  0  0  0  0
  -39.0991   59.8555   36.3823 H   0  0  0  0  0  0  0  0  0  0  0  0
  -40.5069   59.7148   35.5381 H   0  0  0  0  0  0  0  0  0  0  0  0
  1  2  1  0  0  0
  1  3  1  0  0  0
M  END
> <minimizedAffinity>
-0.96070

$$$$



  3  2  0  0  0  0  0  0  0  0999 V2000
  -30.9566   69.2176   30.1548 O   0  0  0  0  0  0  0  0  0  0  0  0
  -31.7861   69.2898   29.6221 H   0  0  0  0  0  0  0  0  0  0  0  0
  -30.4097   68.4278   29.9000 H   0  0  0  0  0  0  0  0  0  0  0  0
  1  2  1  0  0  0
  1  3  1  0  0  0
M  END
> <minimizedAffinity>
-0.95997

$$$$



  3  2  0  0  0  0  0  0  0  0999 V2000
  -32.8019   71.4307   37.2738 O   0  0  0  0  0  0  0  0  0  0  0  0
  -33.6314   71.5029   36.7411 H   0  0  0  0  0  0  0  0  0  0  0  0
  -32.2551   70.6409   37.0190 H   0  0  0  0  0  0  0  0  0  0  0  0
  1  2  1  0  0  0
  1  3  1  0  0  0
M  END
> <minimizedAffinity>
-0.93291

$$$$



  3  2  0  0  0  0  0  0  0  0999 V2000
  -32.0816   67.9066   42.2380 O   0  0  0  0  0  0  0  0  0  0  0  0
  -32.8291   68.5193   42.0313 H   0  0  0  0  0  0  0  0  0  0  0  0
  -31.5172   67.7150   41.4427 H   0  0  0  0  0  0  0  0  0  0  0  0
  1  2  1  0  0  0
  1  3  1  0  0  0
M  END
> <minimizedAffinity>
-0.91433

$$$$



  3  2  0  0  0  0  0  0  0  0999 V2000
  -37.6099   65.4574   29.8842 O   0  0  0  0  0  0  0  0  0  0  0  0
  -36.7190   65.5896   30.2914 H   0  0  0  0  0  0  0  0  0  0  0  0
  -38.3475   65.5695   30.5408 H   0  0  0  0  0  0  0  0  0  0  0  0
  1  2  1  0  0  0
  1  3  1  0  0  0
M  END
> <minimizedAffinity>
-0.91192

$$$$



  3  2  0  0  0  0  0  0  0  0999 V2000
  -32.1776   70.6421   30.8795 O   0  0  0  0  0  0  0  0  0  0  0  0
  -31.2868   70.7744   31.2867 H   0  0  0  0  0  0  0  0  0  0  0  0
  -32.9153   70.7542   31.5361 H   0  0  0  0  0  0  0  0  0  0  0  0
  1  2  1  0  0  0
  1  3  1  0  0  0
M  END
> <minimizedAffinity>
-0.91142

$$$$



  3  2  0  0  0  0  0  0  0  0999 V2000
  -37.2926   70.3304   27.0136 O   0  0  0  0  0  0  0  0  0  0  0  0
  -38.0791   70.8857   27.2371 H   0  0  0  0  0  0  0  0  0  0  0  0
  -36.6527   70.8017   26.4169 H   0  0  0  0  0  0  0  0  0  0  0  0
  1  2  1  0  0  0
  1  3  1  0  0  0
M  END
> <minimizedAffinity>
-0.90127

$$$$



  3  2  0  0  0  0  0  0  0  0999 V2000
  -33.2591   58.6722   25.6322 O   0  0  0  0  0  0  0  0  0  0  0  0
  -34.1222   59.0829   25.3804 H   0  0  0  0  0  0  0  0  0  0  0  0
  -33.0238   57.8991   25.0536 H   0  0  0  0  0  0  0  0  0  0  0  0
  1  2  1  0  0  0
  1  3  1  0  0  0
M  END
> <minimizedAffinity>
-0.88914

$$$$



  3  2  0  0  0  0  0  0  0  0999 V2000
  -37.3638   64.7251   32.4745 O   0  0  0  0  0  0  0  0  0  0  0  0
  -36.4729   64.8574   32.8817 H   0  0  0  0  0  0  0  0  0  0  0  0
  -38.1014   64.8373   33.1311 H   0  0  0  0  0  0  0  0  0  0  0  0
  1  2  1  0  0  0
  1  3  1  0  0  0
M  END
> <minimizedAffinity>
-0.86350

$$$$



  3  2  0  0  0  0  0  0  0  0999 V2000
  -34.9463   70.4282   30.8978 O   0  0  0  0  0  0  0  0  0  0  0  0
  -34.0554   70.5604   31.3050 H   0  0  0  0  0  0  0  0  0  0  0  0
  -35.6839   70.5403   31.5544 H   0  0  0  0  0  0  0  0  0  0  0  0
  1  2  1  0  0  0
  1  3  1  0  0  0
M  END
> <minimizedAffinity>
-0.85562

$$$$



  3  2  0  0  0  0  0  0  0  0999 V2000
  -32.9015   65.8011   43.8017 O   0  0  0  0  0  0  0  0  0  0  0  0
  -33.1606   64.9104   44.1428 H   0  0  0  0  0  0  0  0  0  0  0  0
  -33.6820   66.3259   43.4803 H   0  0  0  0  0  0  0  0  0  0  0  0
  1  2  1  0  0  0
  1  3  1  0  0  0
M  END
> <minimizedAffinity>
-0.84478

$$$$



  3  2  0  0  0  0  0  0  0  0999 V2000
  -44.8379   73.9066   26.0399 O   0  0  0  0  0  0  0  0  0  0  0  0
  -45.6673   73.9788   25.5072 H   0  0  0  0  0  0  0  0  0  0  0  0
  -44.2910   73.1168   25.7851 H   0  0  0  0  0  0  0  0  0  0  0  0
  1  2  1  0  0  0
  1  3  1  0  0  0
M  END
> <minimizedAffinity>
-0.82812

$$$$



  3  2  0  0  0  0  0  0  0  0999 V2000
  -41.2088   72.6612   29.6364 O   0  0  0  0  0  0  0  0  0  0  0  0
  -42.0719   73.0719   29.3847 H   0  0  0  0  0  0  0  0  0  0  0  0
  -40.9736   71.8880   29.0579 H   0  0  0  0  0  0  0  0  0  0  0  0
  1  2  1  0  0  0
  1  3  1  0  0  0
M  END
> <minimizedAffinity>
-0.80380

$$$$



  3  2  0  0  0  0  0  0  0  0999 V2000
  -37.1617   61.5290   30.6596 O   0  0  0  0  0  0  0  0  0  0  0  0
  -37.9482   62.0843   30.8830 H   0  0  0  0  0  0  0  0  0  0  0  0
  -36.5218   62.0003   30.0628 H   0  0  0  0  0  0  0  0  0  0  0  0
  1  2  1  0  0  0
  1  3  1  0  0  0
M  END
> <minimizedAffinity>
-0.78087

$$$$



  3  2  0  0  0  0  0  0  0  0999 V2000
  -33.8058   70.3014   38.9935 O   0  0  0  0  0  0  0  0  0  0  0  0
  -32.9150   70.4337   39.4007 H   0  0  0  0  0  0  0  0  0  0  0  0
  -34.5434   70.4135   39.6501 H   0  0  0  0  0  0  0  0  0  0  0  0
  1  2  1  0  0  0
  1  3  1  0  0  0
M  END
> <minimizedAffinity>
-0.77742

$$$$



  3  2  0  0  0  0  0  0  0  0999 V2000
  -30.9567   73.3356   30.6431 O   0  0  0  0  0  0  0  0  0  0  0  0
  -31.2158   72.4449   30.9843 H   0  0  0  0  0  0  0  0  0  0  0  0
  -31.7371   73.8604   30.3217 H   0  0  0  0  0  0  0  0  0  0  0  0
  1  2  1  0  0  0
  1  3  1  0  0  0
M  END
> <minimizedAffinity>
-0.74517

$$$$



  3  2  0  0  0  0  0  0  0  0999 V2000
  -46.5567   57.8678   40.0869 O   0  0  0  0  0  0  0  0  0  0  0  0
  -45.6943   57.4451   40.3205 H   0  0  0  0  0  0  0  0  0  0  0  0
  -47.1021   57.3044   39.4763 H   0  0  0  0  0  0  0  0  0  0  0  0
  1  2  1  0  0  0
  1  3  1  0  0  0
M  END
> <minimizedAffinity>
-0.73573

$$$$



  3  2  0  0  0  0  0  0  0  0999 V2000
  -36.9962   62.0673   33.7154 O   0  0  0  0  0  0  0  0  0  0  0  0
  -36.1338   61.6447   33.9490 H   0  0  0  0  0  0  0  0  0  0  0  0
  -37.5417   61.5039   33.1047 H   0  0  0  0  0  0  0  0  0  0  0  0
  1  2  1  0  0  0
  1  3  1  0  0  0
M  END
> <minimizedAffinity>
-0.73173

$$$$



  3  2  0  0  0  0  0  0  0  0999 V2000
  -33.0363   73.9066   30.4296 O   0  0  0  0  0  0  0  0  0  0  0  0
  -32.1739   73.4840   30.6632 H   0  0  0  0  0  0  0  0  0  0  0  0
  -33.5818   73.3433   29.8190 H   0  0  0  0  0  0  0  0  0  0  0  0
  1  2  1  0  0  0
  1  3  1  0  0  0
M  END
> <minimizedAffinity>
-0.72912

$$$$



  3  2  0  0  0  0  0  0  0  0999 V2000
  -48.1175   66.9208   32.9810 O   0  0  0  0  0  0  0  0  0  0  0  0
  -48.8650   67.5335   32.7742 H   0  0  0  0  0  0  0  0  0  0  0  0
  -47.5530   66.7292   32.1857 H   0  0  0  0  0  0  0  0  0  0  0  0
  1  2  1  0  0  0
  1  3  1  0  0  0
M  END
> <minimizedAffinity>
-0.71128

$$$$



  3  2  0  0  0  0  0  0  0  0999 V2000
  -38.3577   71.2027   26.9805 O   0  0  0  0  0  0  0  0  0  0  0  0
  -39.2208   71.6134   26.7288 H   0  0  0  0  0  0  0  0  0  0  0  0
  -38.1225   70.4296   26.4020 H   0  0  0  0  0  0  0  0  0  0  0  0
  1  2  1  0  0  0
  1  3  1  0  0  0
M  END
> <minimizedAffinity>
-0.70806

$$$$



  3  2  0  0  0  0  0  0  0  0999 V2000
  -37.4082   72.9390   26.7074 O   0  0  0  0  0  0  0  0  0  0  0  0
  -38.1947   73.4943   26.9309 H   0  0  0  0  0  0  0  0  0  0  0  0
  -36.7683   73.4103   26.1106 H   0  0  0  0  0  0  0  0  0  0  0  0
  1  2  1  0  0  0
  1  3  1  0  0  0
M  END
> <minimizedAffinity>
-0.68907

$$$$



  3  2  0  0  0  0  0  0  0  0999 V2000
  -36.5724   63.0913   32.7646 O   0  0  0  0  0  0  0  0  0  0  0  0
  -36.8315   62.2005   33.1057 H   0  0  0  0  0  0  0  0  0  0  0  0
  -37.3528   63.6161   32.4431 H   0  0  0  0  0  0  0  0  0  0  0  0
  1  2  1  0  0  0
  1  3  1  0  0  0
M  END
> <minimizedAffinity>
-0.68011

$$$$



  3  2  0  0  0  0  0  0  0  0999 V2000
  -32.8725   70.2052   26.1426 O   0  0  0  0  0  0  0  0  0  0  0  0
  -33.7020   70.2774   25.6099 H   0  0  0  0  0  0  0  0  0  0  0  0
  -32.3256   69.4154   25.8878 H   0  0  0  0  0  0  0  0  0  0  0  0
  1  2  1  0  0  0
  1  3  1  0  0  0
M  END
> <minimizedAffinity>
-0.64886

$$$$



  3  2  0  0  0  0  0  0  0  0999 V2000
  -35.1343   70.7814   27.5553 O   0  0  0  0  0  0  0  0  0  0  0  0
  -35.9638   70.8536   27.0226 H   0  0  0  0  0  0  0  0  0  0  0  0
  -34.5874   69.9916   27.3005 H   0  0  0  0  0  0  0  0  0  0  0  0
  1  2  1  0  0  0
  1  3  1  0  0  0
M  END
> <minimizedAffinity>
-0.64713

$$$$



  3  2  0  0  0  0  0  0  0  0999 V2000
  -36.5803   70.1493   27.9836 O   0  0  0  0  0  0  0  0  0  0  0  0
  -35.7179   69.7267   28.2172 H   0  0  0  0  0  0  0  0  0  0  0  0
  -37.1258   69.5859   27.3730 H   0  0  0  0  0  0  0  0  0  0  0  0
  1  2  1  0  0  0
  1  3  1  0  0  0
M  END
> <minimizedAffinity>
-0.64193

$$$$



  3  2  0  0  0  0  0  0  0  0999 V2000
  -45.1004   60.7026   35.0080 O   0  0  0  0  0  0  0  0  0  0  0  0
  -45.3595   59.8118   35.3492 H   0  0  0  0  0  0  0  0  0  0  0  0
  -45.8809   61.2274   34.6866 H   0  0  0  0  0  0  0  0  0  0  0  0
  1  2  1  0  0  0
  1  3  1  0  0  0
M  END
> <minimizedAffinity>
-0.64103

$$$$



  3  2  0  0  0  0  0  0  0  0999 V2000
  -42.5874   59.8459   36.0954 O   0  0  0  0  0  0  0  0  0  0  0  0
  -42.8465   58.9552   36.4366 H   0  0  0  0  0  0  0  0  0  0  0  0
  -43.3678   60.3707   35.7740 H   0  0  0  0  0  0  0  0  0  0  0  0
  1  2  1  0  0  0
  1  3  1  0  0  0
M  END
> <minimizedAffinity>
-0.63036

$$$$



  3  2  0  0  0  0  0  0  0  0999 V2000
  -48.9525   57.4452   37.1102 O   0  0  0  0  0  0  0  0  0  0  0  0
  -49.7819   57.5174   36.5775 H   0  0  0  0  0  0  0  0  0  0  0  0
  -48.4056   56.6554   36.8554 H   0  0  0  0  0  0  0  0  0  0  0  0
  1  2  1  0  0  0
  1  3  1  0  0  0
M  END
> <minimizedAffinity>
-0.62424

$$$$



  3  2  0  0  0  0  0  0  0  0999 V2000
  -34.0991   73.9064   28.5342 O   0  0  0  0  0  0  0  0  0  0  0  0
  -34.9286   73.9786   28.0015 H   0  0  0  0  0  0  0  0  0  0  0  0
  -33.5522   73.1166   28.2794 H   0  0  0  0  0  0  0  0  0  0  0  0
  1  2  1  0  0  0
  1  3  1  0  0  0
M  END
> <minimizedAffinity>
-0.62307

$$$$



  3  2  0  0  0  0  0  0  0  0999 V2000
  -36.4686   70.3149   31.6526 O   0  0  0  0  0  0  0  0  0  0  0  0
  -37.3317   70.7256   31.4009 H   0  0  0  0  0  0  0  0  0  0  0  0
  -36.2334   69.5418   31.0740 H   0  0  0  0  0  0  0  0  0  0  0  0
  1  2  1  0  0  0
  1  3  1  0  0  0
M  END
> <minimizedAffinity>
-0.60835

$$$$



  3  2  0  0  0  0  0  0  0  0999 V2000
  -38.0714   72.5298   28.0280 O   0  0  0  0  0  0  0  0  0  0  0  0
  -38.8579   73.0851   28.2515 H   0  0  0  0  0  0  0  0  0  0  0  0
  -37.4315   73.0012   27.4312 H   0  0  0  0  0  0  0  0  0  0  0  0
  1  2  1  0  0  0
  1  3  1  0  0  0
M  END
> <minimizedAffinity>
-0.60359

$$$$



  3  2  0  0  0  0  0  0  0  0999 V2000
  -39.0946   66.1163   38.3800 O   0  0  0  0  0  0  0  0  0  0  0  0
  -38.2037   66.2486   38.7872 H   0  0  0  0  0  0  0  0  0  0  0  0
  -39.8322   66.2284   39.0366 H   0  0  0  0  0  0  0  0  0  0  0  0
  1  2  1  0  0  0
  1  3  1  0  0  0
M  END
> <minimizedAffinity>
-0.59120

$$$$



  3  2  0  0  0  0  0  0  0  0999 V2000
  -48.9566   57.0316   38.7683 O   0  0  0  0  0  0  0  0  0  0  0  0
  -48.0942   56.6089   39.0019 H   0  0  0  0  0  0  0  0  0  0  0  0
  -49.5020   56.4682   38.1576 H   0  0  0  0  0  0  0  0  0  0  0  0
  1  2  1  0  0  0
  1  3  1  0  0  0
M  END
> <minimizedAffinity>
-0.57693

$$$$



  3  2  0  0  0  0  0  0  0  0999 V2000
  -36.2066   73.5317   32.1105 O   0  0  0  0  0  0  0  0  0  0  0  0
  -36.2946   74.1608   32.8678 H   0  0  0  0  0  0  0  0  0  0  0  0
  -35.3311   73.0613   32.1080 H   0  0  0  0  0  0  0  0  0  0  0  0
  1  2  1  0  0  0
  1  3  1  0  0  0
M  END
> <minimizedAffinity>
-0.57241

$$$$



  3  2  0  0  0  0  0  0  0  0999 V2000
  -38.4564   67.8448   32.4050 O   0  0  0  0  0  0  0  0  0  0  0  0
  -37.5940   67.4222   32.6386 H   0  0  0  0  0  0  0  0  0  0  0  0
  -39.0019   67.2815   31.7943 H   0  0  0  0  0  0  0  0  0  0  0  0
  1  2  1  0  0  0
  1  3  1  0  0  0
M  END
> <minimizedAffinity>
-0.55872

$$$$



  3  2  0  0  0  0  0  0  0  0999 V2000
  -37.9873   71.3129   32.7462 O   0  0  0  0  0  0  0  0  0  0  0  0
  -38.8503   71.7236   32.4945 H   0  0  0  0  0  0  0  0  0  0  0  0
  -37.7520   70.5398   32.1676 H   0  0  0  0  0  0  0  0  0  0  0  0
  1  2  1  0  0  0
  1  3  1  0  0  0
M  END
> <minimizedAffinity>
-0.55499

$$$$



  3  2  0  0  0  0  0  0  0  0999 V2000
  -33.5452   68.3255   40.6799 O   0  0  0  0  0  0  0  0  0  0  0  0
  -34.2927   68.9382   40.4732 H   0  0  0  0  0  0  0  0  0  0  0  0
  -32.9807   68.1339   39.8846 H   0  0  0  0  0  0  0  0  0  0  0  0
  1  2  1  0  0  0
  1  3  1  0  0  0
M  END
> <minimizedAffinity>
-0.55160

$$$$



  3  2  0  0  0  0  0  0  0  0999 V2000
  -34.3666   72.4066   37.7355 O   0  0  0  0  0  0  0  0  0  0  0  0
  -34.6257   71.5159   38.0767 H   0  0  0  0  0  0  0  0  0  0  0  0
  -35.1471   72.9315   37.4141 H   0  0  0  0  0  0  0  0  0  0  0  0
  1  2  1  0  0  0
  1  3  1  0  0  0
M  END
> <minimizedAffinity>
-0.54251

$$$$



  3  2  0  0  0  0  0  0  0  0999 V2000
  -40.3558   66.8897   35.6298 O   0  0  0  0  0  0  0  0  0  0  0  0
  -41.2189   67.3004   35.3781 H   0  0  0  0  0  0  0  0  0  0  0  0
  -40.1206   66.1166   35.0512 H   0  0  0  0  0  0  0  0  0  0  0  0
  1  2  1  0  0  0
  1  3  1  0  0  0
M  END
> <minimizedAffinity>
-0.52977

$$$$



  3  2  0  0  0  0  0  0  0  0999 V2000
  -36.0094   70.9173   39.1708 O   0  0  0  0  0  0  0  0  0  0  0  0
  -36.7569   71.5299   38.9641 H   0  0  0  0  0  0  0  0  0  0  0  0
  -35.4449   70.7257   38.3755 H   0  0  0  0  0  0  0  0  0  0  0  0
  1  2  1  0  0  0
  1  3  1  0  0  0
M  END
> <minimizedAffinity>
-0.51479

$$$$



  3  2  0  0  0  0  0  0  0  0999 V2000
  -38.6045   60.0256   33.1489 O   0  0  0  0  0  0  0  0  0  0  0  0
  -38.6925   60.6547   33.9062 H   0  0  0  0  0  0  0  0  0  0  0  0
  -37.7290   59.5552   33.1464 H   0  0  0  0  0  0  0  0  0  0  0  0
  1  2  1  0  0  0
  1  3  1  0  0  0
M  END
> <minimizedAffinity>
-0.51407

$$$$



  3  2  0  0  0  0  0  0  0  0999 V2000
  -37.5508   68.7035   28.7754 O   0  0  0  0  0  0  0  0  0  0  0  0
  -36.6884   68.2808   29.0090 H   0  0  0  0  0  0  0  0  0  0  0  0
  -38.0962   68.1401   28.1647 H   0  0  0  0  0  0  0  0  0  0  0  0
  1  2  1  0  0  0
  1  3  1  0  0  0
M  END
> <minimizedAffinity>
-0.49039

$$$$



  3  2  0  0  0  0  0  0  0  0999 V2000
  -48.4862   61.2383   35.4286 O   0  0  0  0  0  0  0  0  0  0  0  0
  -47.5953   61.3706   35.8358 H   0  0  0  0  0  0  0  0  0  0  0  0
  -49.2238   61.3505   36.0852 H   0  0  0  0  0  0  0  0  0  0  0  0
  1  2  1  0  0  0
  1  3  1  0  0  0
M  END
> <minimizedAffinity>
-0.49007

$$$$



  3  2  0  0  0  0  0  0  0  0999 V2000
  -44.5686   58.0328   43.1487 O   0  0  0  0  0  0  0  0  0  0  0  0
  -43.7062   57.6102   43.3823 H   0  0  0  0  0  0  0  0  0  0  0  0
  -45.1140   57.4695   42.5381 H   0  0  0  0  0  0  0  0  0  0  0  0
  1  2  1  0  0  0
  1  3  1  0  0  0
M  END
> <minimizedAffinity>
-0.47878

$$$$



  3  2  0  0  0  0  0  0  0  0999 V2000
  -41.2055   64.2254   30.7194 O   0  0  0  0  0  0  0  0  0  0  0  0
  -40.3431   63.8027   30.9530 H   0  0  0  0  0  0  0  0  0  0  0  0
  -41.7509   63.6620   30.1087 H   0  0  0  0  0  0  0  0  0  0  0  0
  1  2  1  0  0  0
  1  3  1  0  0  0
M  END
> <minimizedAffinity>
-0.47349

$$$$



  3  2  0  0  0  0  0  0  0  0999 V2000
  -40.7013   67.0747   30.8235 O   0  0  0  0  0  0  0  0  0  0  0  0
  -41.4489   67.6873   30.6168 H   0  0  0  0  0  0  0  0  0  0  0  0
  -40.1369   66.8831   30.0282 H   0  0  0  0  0  0  0  0  0  0  0  0
  1  2  1  0  0  0
  1  3  1  0  0  0
M  END
> <minimizedAffinity>
-0.45910

$$$$



  3  2  0  0  0  0  0  0  0  0999 V2000
  -40.2830   60.3841   33.7134 O   0  0  0  0  0  0  0  0  0  0  0  0
  -39.3922   60.5163   34.1206 H   0  0  0  0  0  0  0  0  0  0  0  0
  -41.0206   60.4962   34.3701 H   0  0  0  0  0  0  0  0  0  0  0  0
  1  2  1  0  0  0
  1  3  1  0  0  0
M  END
> <minimizedAffinity>
-0.45356

$$$$



  3  2  0  0  0  0  0  0  0  0999 V2000
  -41.1883   62.5978   33.1087 O   0  0  0  0  0  0  0  0  0  0  0  0
  -41.9358   63.2105   32.9019 H   0  0  0  0  0  0  0  0  0  0  0  0
  -40.6239   62.4062   32.3134 H   0  0  0  0  0  0  0  0  0  0  0  0
  1  2  1  0  0  0
  1  3  1  0  0  0
M  END
> <minimizedAffinity>
-0.43577

$$$$



  3  2  0  0  0  0  0  0  0  0999 V2000
  -44.2551   61.3665   34.7562 O   0  0  0  0  0  0  0  0  0  0  0  0
  -44.5142   60.4758   35.0974 H   0  0  0  0  0  0  0  0  0  0  0  0
  -45.0355   61.8913   34.4348 H   0  0  0  0  0  0  0  0  0  0  0  0
  1  2  1  0  0  0
  1  3  1  0  0  0
M  END
> <minimizedAffinity>
-0.42514

$$$$



  3  2  0  0  0  0  0  0  0  0999 V2000
  -39.0417   65.7878   32.5098 O   0  0  0  0  0  0  0  0  0  0  0  0
  -38.1509   65.9200   32.9170 H   0  0  0  0  0  0  0  0  0  0  0  0
  -39.7793   65.8999   33.1664 H   0  0  0  0  0  0  0  0  0  0  0  0
  1  2  1  0  0  0
  1  3  1  0  0  0
M  END
> <minimizedAffinity>
-0.38052

$$$$



  3  2  0  0  0  0  0  0  0  0999 V2000
  -41.4471   61.9830   37.2865 O   0  0  0  0  0  0  0  0  0  0  0  0
  -40.5563   62.1153   37.6937 H   0  0  0  0  0  0  0  0  0  0  0  0
  -42.1848   62.0952   37.9432 H   0  0  0  0  0  0  0  0  0  0  0  0
  1  2  1  0  0  0
  1  3  1  0  0  0
M  END
> <minimizedAffinity>
-0.38048

$$$$



  3  2  0  0  0  0  0  0  0  0999 V2000
  -35.0684   73.2042   30.1652 O   0  0  0  0  0  0  0  0  0  0  0  0
  -34.2060   72.7816   30.3988 H   0  0  0  0  0  0  0  0  0  0  0  0
  -35.6138   72.6408   29.5546 H   0  0  0  0  0  0  0  0  0  0  0  0
  1  2  1  0  0  0
  1  3  1  0  0  0
M  END
> <minimizedAffinity>
-0.37774

$$$$



  3  2  0  0  0  0  0  0  0  0999 V2000
  -37.9346   73.1011   30.6243 O   0  0  0  0  0  0  0  0  0  0  0  0
  -38.0226   73.7302   31.3816 H   0  0  0  0  0  0  0  0  0  0  0  0
  -37.0590   72.6307   30.6218 H   0  0  0  0  0  0  0  0  0  0  0  0
  1  2  1  0  0  0
  1  3  1  0  0  0
M  END
> <minimizedAffinity>
-0.37770

$$$$



  3  2  0  0  0  0  0  0  0  0999 V2000
  -48.2390   59.2723   36.5113 O   0  0  0  0  0  0  0  0  0  0  0  0
  -47.3481   59.4046   36.9185 H   0  0  0  0  0  0  0  0  0  0  0  0
  -48.9766   59.3844   37.1679 H   0  0  0  0  0  0  0  0  0  0  0  0
  1  2  1  0  0  0
  1  3  1  0  0  0
M  END
> <minimizedAffinity>
-0.35719

$$$$



  3  2  0  0  0  0  0  0  0  0999 V2000
  -42.2067   63.2099   34.7358 O   0  0  0  0  0  0  0  0  0  0  0  0
  -42.4658   62.3192   35.0769 H   0  0  0  0  0  0  0  0  0  0  0  0
  -42.9871   63.7347   34.4144 H   0  0  0  0  0  0  0  0  0  0  0  0
  1  2  1  0  0  0
  1  3  1  0  0  0
M  END
> <minimizedAffinity>
-0.35597

$$$$



  3  2  0  0  0  0  0  0  0  0999 V2000
  -41.9665   66.0995   33.4033 O   0  0  0  0  0  0  0  0  0  0  0  0
  -41.0756   66.2318   33.8105 H   0  0  0  0  0  0  0  0  0  0  0  0
  -42.7041   66.2117   34.0599 H   0  0  0  0  0  0  0  0  0  0  0  0
  1  2  1  0  0  0
  1  3  1  0  0  0
M  END
> <minimizedAffinity>
-0.32594

$$$$



  3  2  0  0  0  0  0  0  0  0999 V2000
  -31.5231   72.4309   29.4192 O   0  0  0  0  0  0  0  0  0  0  0  0
  -32.3526   72.5031   28.8865 H   0  0  0  0  0  0  0  0  0  0  0  0
  -30.9763   71.6411   29.1644 H   0  0  0  0  0  0  0  0  0  0  0  0
  1  2  1  0  0  0
  1  3  1  0  0  0
M  END
> <minimizedAffinity>
-0.32263

$$$$



  3  2  0  0  0  0  0  0  0  0999 V2000
  -46.3357   68.3945   34.1654 O   0  0  0  0  0  0  0  0  0  0  0  0
  -47.0832   69.0072   33.9587 H   0  0  0  0  0  0  0  0  0  0  0  0
  -45.7712   68.2029   33.3701 H   0  0  0  0  0  0  0  0  0  0  0  0
  1  2  1  0  0  0
  1  3  1  0  0  0
M  END
> <minimizedAffinity>
-0.30546

$$$$



  3  2  0  0  0  0  0  0  0  0999 V2000
  -45.6390   70.4178   34.3287 O   0  0  0  0  0  0  0  0  0  0  0  0
  -46.3866   71.0304   34.1220 H   0  0  0  0  0  0  0  0  0  0  0  0
  -45.0746   70.2262   33.5334 H   0  0  0  0  0  0  0  0  0  0  0  0
  1  2  1  0  0  0
  1  3  1  0  0  0
M  END
> <minimizedAffinity>
-0.29312

$$$$



  3  2  0  0  0  0  0  0  0  0999 V2000
  -35.2566   67.9196   41.4538 O   0  0  0  0  0  0  0  0  0  0  0  0
  -34.3657   68.0519   41.8610 H   0  0  0  0  0  0  0  0  0  0  0  0
  -35.9942   68.0317   42.1104 H   0  0  0  0  0  0  0  0  0  0  0  0
  1  2  1  0  0  0
  1  3  1  0  0  0
M  END
> <minimizedAffinity>
-0.27257

$$$$



  3  2  0  0  0  0  0  0  0  0999 V2000
  -30.9751   72.4487   43.3633 O   0  0  0  0  0  0  0  0  0  0  0  0
  -30.1127   72.0261   43.5969 H   0  0  0  0  0  0  0  0  0  0  0  0
  -31.5206   71.8854   42.7526 H   0  0  0  0  0  0  0  0  0  0  0  0
  1  2  1  0  0  0
  1  3  1  0  0  0
M  END
> <minimizedAffinity>
-0.26158

$$$$



  3  2  0  0  0  0  0  0  0  0999 V2000
  -48.6683   58.4372   41.9105 O   0  0  0  0  0  0  0  0  0  0  0  0
  -49.4977   58.5094   41.3778 H   0  0  0  0  0  0  0  0  0  0  0  0
  -48.1214   57.6474   41.6557 H   0  0  0  0  0  0  0  0  0  0  0  0
  1  2  1  0  0  0
  1  3  1  0  0  0
M  END
> <minimizedAffinity>
-0.25104

$$$$



  3  2  0  0  0  0  0  0  0  0999 V2000
  -41.4750   68.8762   34.6210 O   0  0  0  0  0  0  0  0  0  0  0  0
  -42.3044   68.9484   34.0884 H   0  0  0  0  0  0  0  0  0  0  0  0
  -40.9281   68.0864   34.3662 H   0  0  0  0  0  0  0  0  0  0  0  0
  1  2  1  0  0  0
  1  3  1  0  0  0
M  END
> <minimizedAffinity>
-0.25004

$$$$



  3  2  0  0  0  0  0  0  0  0999 V2000
  -44.3666   68.2811   35.3238 O   0  0  0  0  0  0  0  0  0  0  0  0
  -44.4546   68.9102   36.0810 H   0  0  0  0  0  0  0  0  0  0  0  0
  -43.4911   67.8107   35.3213 H   0  0  0  0  0  0  0  0  0  0  0  0
  1  2  1  0  0  0
  1  3  1  0  0  0
M  END
> <minimizedAffinity>
-0.20349

$$$$



  3  2  0  0  0  0  0  0  0  0999 V2000
  -40.8957   64.9056   38.9935 O   0  0  0  0  0  0  0  0  0  0  0  0
  -40.0049   65.0378   39.4007 H   0  0  0  0  0  0  0  0  0  0  0  0
  -41.6334   65.0177   39.6501 H   0  0  0  0  0  0  0  0  0  0  0  0
  1  2  1  0  0  0
  1  3  1  0  0  0
M  END
> <minimizedAffinity>
-0.19431

$$$$



  3  2  0  0  0  0  0  0  0  0999 V2000
  -45.5740   61.8994   38.4782 O   0  0  0  0  0  0  0  0  0  0  0  0
  -45.8330   61.0086   38.8194 H   0  0  0  0  0  0  0  0  0  0  0  0
  -46.3544   62.4242   38.1568 H   0  0  0  0  0  0  0  0  0  0  0  0
  1  2  1  0  0  0
  1  3  1  0  0  0
M  END
> <minimizedAffinity>
-0.18393

$$$$
